Program Version,EnergyPlus, Version 8.4.0-09f5359d8a, YMD=2017.06.07 13:31
! <Version>, Version ID
 Version, 8.4
! <Timesteps per Hour>, #TimeSteps, Minutes per TimeStep {minutes}
 Timesteps per Hour, 60,  1
! <System Convergence Limits>, Minimum System TimeStep {minutes}, Max HVAC Iterations, Minimum Plant Iterations, Maximum Plant Iterations
 System Convergence Limits, 1, 20, 2, 8
! <Simulation Control>, Do Zone Sizing, Do System Sizing, Do Plant Sizing, Do Design Days, Do Weather Simulation, Do HVAC Sizing Simulation
 Simulation Control, Yes, Yes, Yes, Yes, Yes, No
! <Output Reporting Tolerances>, Tolerance for Time Heating Setpoint Not Met, Tolerance for Zone Cooling Setpoint Not Met Time
 Output Reporting Tolerances, 0.200, 0.200, 
! <Site:GroundTemperature:BuildingSurface>, Months From Jan to Dec {C}
 Site:GroundTemperature:BuildingSurface,  18.00,  18.00,  18.00,  18.00,  18.00,  18.00,  18.00,  18.00,  18.00,  18.00,  18.00,  18.00
! <Site:GroundTemperature:FCfactorMethod>, Months From Jan to Dec {C}
 Site:GroundTemperature:FCfactorMethod,   0.39,  -0.67,   1.21,   4.15,  11.84,  17.78,  21.78,  23.00,  20.92,  16.31,  10.15,   4.44
! <Site:GroundTemperature:Shallow>, Months From Jan to Dec {C}
 Site:GroundTemperature:Shallow,  13.00,  13.00,  13.00,  13.00,  13.00,  13.00,  13.00,  13.00,  13.00,  13.00,  13.00,  13.00
! <Site:GroundTemperature:Deep>, Months From Jan to Dec {C}
 Site:GroundTemperature:Deep,  16.00,  16.00,  16.00,  16.00,  16.00,  16.00,  16.00,  16.00,  16.00,  16.00,  16.00,  16.00
! <Site:GroundReflectance>, Months From Jan to Dec {dimensionless}
 Site:GroundReflectance,  0.20,  0.20,  0.20,  0.20,  0.20,  0.20,  0.20,  0.20,  0.20,  0.20,  0.20,  0.20
! <Site:GroundReflectance:SnowModifier>, Normal, Daylighting {dimensionless}
 Site:GroundReflectance:SnowModifier,   1.000,   1.000
! <Site:GroundReflectance:Snow>, Months From Jan to Dec {dimensionless}
 Site:GroundReflectance:Snow,  0.20,  0.20,  0.20,  0.20,  0.20,  0.20,  0.20,  0.20,  0.20,  0.20,  0.20,  0.20
! <Site:GroundReflectance:Snow:Daylighting>, Months From Jan to Dec {dimensionless}
 Site:GroundReflectance:Snow:Daylighting,  0.20,  0.20,  0.20,  0.20,  0.20,  0.20,  0.20,  0.20,  0.20,  0.20,  0.20,  0.20
! <Environment:Weather Station>,Wind Sensor Height Above Ground {m},Wind Speed Profile Exponent {},Wind Speed Profile Boundary Layer Thickness {m},Air Temperature Sensor Height Above Ground {m},Wind Speed Modifier Coefficient [Internal],Temperature Modifier Coefficient [Internal]
Environment:Weather Station,10.000,0.140,270.000,1.500,1.586,9.750E-003
! <Site:Location>, Location Name, Latitude {N+/S- Deg}, Longitude {E+/W- Deg},  Time Zone Number {GMT+/-}, Elevation {m},  Standard Pressure at Elevation {Pa}, Standard RhoAir at Elevation
Site:Location,Boise Air Terminal  Uo ID USA TMY3 WMO#=726810,43.62,-116.21,-7.00,701.00,93182,1.1075
! <Building Information>, Building Name,North Axis {deg},Terrain,  Loads Convergence Tolerance Value,Temperature Convergence Tolerance Value,  Solar Distribution,Maximum Number of Warmup Days,Minimum Number of Warmup Days
 Building Information,Large Office,0.000,City,4.00000E-002,0.20000,FullInteriorAndExterior,25,6
! <Inside Convection Algorithm>, Algorithm {Simple | TARP | CeilingDiffuser | AdaptiveConvectionAlgorithm}
Inside Convection Algorithm,TARP
! <Outside Convection Algorithm>, Algorithm {SimpleCombined | TARP | MoWitt | DOE-2 | AdaptiveConvectionAlgorithm}
Outside Convection Algorithm,TARP
! <Sky Radiance Distribution>, Value {Anisotropic}
Sky Radiance Distribution,Anisotropic
! <Zone Air Solution Algorithm>, Value {ThirdOrderBackwardDifference | AnalyticalSolution | EulerMethod}
 Zone Air Solution Algorithm, ThirdOrderBackwardDifference
! <Zone Air Carbon Dioxide Balance Simulation>, Simulation {Yes/No}, Carbon Dioxide Concentration
 Zone Air Carbon Dioxide Balance Simulation, No,N/A
! <Zone Air Generic Contaminant Balance Simulation>, Simulation {Yes/No}, Generic Contaminant Concentration
 Zone Air Generic Contaminant Balance Simulation, No,N/A
! <Zone Air Mass Flow Balance Simulation>, Enforce Mass Balance, Adjust Zone Mixing, Adjust Zone Infiltration {AddInfiltration | AdjustInfiltration | None}, Infiltration Zones {MixingSourceZonesOnly | AllZones}
 Zone Air Mass Flow Balance Simulation, No,N/A,N/A,N/A
! <Environment:Site Atmospheric Variation>,Wind Speed Profile Exponent {},Wind Speed Profile Boundary Layer Thickness {m},Air Temperature Gradient Coefficient {K/m}
Environment:Site Atmospheric Variation,0.330,460.000,6.500000E-003
! <SurfaceGeometry>,Starting Corner,Vertex Input Direction,Coordinate System,Daylight Reference Point Coordinate System,Rectangular (Simple) Surface Coordinate System
 Surface Geometry,UpperLeftCorner,Counterclockwise,RelativeCoordinateSystem,RelativeCoordinateSystem,RelativeToZoneOrigin
! <Other Side Coefficients>,Name,Combined convective/radiative film coefficient {W/m2-K},User selected Constant Temperature {C},Coefficient modifying the constant temperature term,Coefficient modifying the external dry bulb temperature term,Coefficient modifying the ground temperature term,Coefficient modifying the wind speed term {s/m},Coefficient modifying the zone air temperature term,Constant Temperature Schedule Name,Sinusoidal Variation,Period of Sinusoidal Variation,Previous Other Side Temperature Coefficient,Minimum Other Side Temperature {C},Maximum Other Side Temperature {C}
Other Side Coefficients,SURFPROPOTHSDCOEFBASEMENTAVGWALL,N/A,N/A,1.000,0.000,0.000,0.000,0.000,SCHEDULEOSCBASEMENTWALLSURFACETEMP,NO,24.000,0.000,N/A,N/A
Other Side Coefficients,SURFPROPOTHSDCOEFBASEMENTAVGFLOOR,N/A,N/A,1.000,0.000,0.000,0.000,0.000,SCHEDULEOSCBASEMENTFLOORTEMP,NO,24.000,0.000,N/A,N/A
Other Side Coefficients,SURFPROPOTHSDCOEFBASEMENTUPPERWALL,N/A,N/A,1.000,0.000,0.000,0.000,0.000,SCHEDULEOSCBASEMENTUPPERWALLTEMP,NO,24.000,0.000,N/A,N/A
Other Side Coefficients,SURFPROPOTHSDCOEFBASEMENTLOWERWALL,N/A,N/A,1.000,0.000,0.000,0.000,0.000,SCHEDULEOSCBASEMENTLOWERWALLTEMP,NO,24.000,0.000,N/A,N/A
! <Surface Heat Transfer Algorithm>, Value {CTF - ConductionTransferFunction | EMPD - MoisturePenetrationDepthConductionTransferFunction | CondFD - ConductionFiniteDifference | HAMT - CombinedHeatAndMoistureFiniteElement} - Description,Inside Surface Max Temperature Limit{C}, Surface Convection Coefficient Lower Limit {W/m2-K}, Surface Convection Coefficient Upper Limit {W/m2-K}
Surface Heat Transfer Algorithm, CTF - ConductionTransferFunction,200,0.10,1000.0
! <Shading Summary>, Number of Fixed Detached Shades, Number of Building Detached Shades, Number of Attached Shades
 Shading Summary,0,0,0
! <Zone Summary>, Number of Zones, Number of Zone Surfaces, Number of SubSurfaces
 Zone Summary,23,197,12
! <Zone Information>,Zone Name,North Axis {deg},Origin X-Coordinate {m},Origin Y-Coordinate {m},Origin Z-Coordinate {m},Centroid X-Coordinate {m},Centroid Y-Coordinate {m},Centroid Z-Coordinate {m},Type,Zone Multiplier,Zone List Multiplier,Minimum X {m},Maximum X {m},Minimum Y {m},Maximum Y {m},Minimum Z {m},Maximum Z {m},Ceiling Height {m},Volume {m3},Zone Inside Convection Algorithm {Simple-Detailed-CeilingDiffuser-TrombeWall},Zone Outside Convection Algorithm {Simple-Detailed-Tarp-MoWitt-DOE-2-BLAST}, Floor Area {m2},Exterior Gross Wall Area {m2},Exterior Net Wall Area {m2},Exterior Window Area {m2}, Number of Surfaces, Number of SubSurfaces, Number of Shading SubSurfaces,  Part of Total Building Area
 Zone Information, BASEMENT,0.0,0.00,0.00,0.00,44.59,24.37,-1.22,1,1,1,16.08,73.11,0.00,48.74,-2.44,0.00,2.44,6779.02,TARP,TARP,2779.43,0.00,0.00,0.00,9,0,0,Yes
 Zone Information, CORE_BOTTOM,0.0,0.00,0.00,0.00,37.01,24.37,1.37,1,1,1,5.49,68.53,4.57,44.17,0.00,2.74,2.74,6849.35,TARP,TARP,2496.12,0.00,0.00,0.00,7,0,0,Yes
 Zone Information, CORE_MID,0.0,0.00,0.00,0.00,37.01,24.37,18.14,1,10,1,5.49,68.53,4.57,44.17,16.77,19.51,2.74,6849.35,TARP,TARP,2496.12,0.00,0.00,0.00,6,0,0,Yes
 Zone Information, CORE_TOP,0.0,0.00,0.00,0.00,37.01,24.37,34.91,1,1,1,5.49,68.53,4.57,44.17,33.54,36.28,2.74,6849.35,TARP,TARP,2496.12,0.00,0.00,0.00,6,0,0,Yes
 Zone Information, PERIMETER_BOT_ZN_3,0.0,0.00,0.00,0.00,36.55,46.54,1.37,1,1,1,0.00,73.11,44.17,48.74,0.00,2.74,2.74,860.00,TARP,TARP,313.41,200.61,84.71,115.90,8,1,0,Yes
 Zone Information, PERIMETER_BOT_ZN_2,0.0,0.00,0.00,0.00,70.95,24.37,1.37,1,1,1,68.53,73.11,0.00,48.74,0.00,2.74,2.74,554.22,TARP,TARP,201.98,133.74,56.47,77.26,6,1,0,Yes
 Zone Information, PERIMETER_BOT_ZN_1,0.0,0.00,0.00,0.00,36.55,2.20,1.37,1,1,1,0.00,73.11,0.00,4.57,0.00,2.74,2.74,860.02,TARP,TARP,313.42,200.61,84.71,115.90,8,1,0,Yes
 Zone Information, PERIMETER_BOT_ZN_4,0.0,0.00,0.00,0.00,2.16,24.37,1.37,1,1,1,0.00,4.57,0.00,48.74,0.00,2.74,2.74,554.22,TARP,TARP,201.98,133.74,56.47,77.26,6,1,0,Yes
 Zone Information, PERIMETER_MID_ZN_3,0.0,0.00,0.00,0.00,36.55,46.54,18.14,1,10,1,0.00,73.11,44.17,48.74,16.77,19.51,2.74,860.00,TARP,TARP,313.41,200.61,84.71,115.90,7,1,0,Yes
 Zone Information, PERIMETER_MID_ZN_2,0.0,0.00,0.00,0.00,70.95,24.37,18.14,1,10,1,68.53,73.11,0.00,48.74,16.77,19.51,2.74,554.22,TARP,TARP,201.98,133.74,56.47,77.26,6,1,0,Yes
 Zone Information, PERIMETER_MID_ZN_1,0.0,0.00,0.00,0.00,36.55,2.20,18.14,1,10,1,0.00,73.11,0.00,4.57,16.77,19.51,2.74,860.02,TARP,TARP,313.42,200.61,84.71,115.90,7,1,0,Yes
 Zone Information, PERIMETER_MID_ZN_4,0.0,0.00,0.00,0.00,2.16,24.37,18.14,1,10,1,0.00,4.57,0.00,48.74,16.77,19.51,2.74,554.22,TARP,TARP,201.98,133.74,56.47,77.26,6,1,0,Yes
 Zone Information, PERIMETER_TOP_ZN_3,0.0,0.00,0.00,0.00,36.55,46.54,34.91,1,1,1,0.00,73.11,44.17,48.74,33.54,36.28,2.74,860.00,TARP,TARP,313.41,200.61,84.71,115.90,7,1,0,Yes
 Zone Information, PERIMETER_TOP_ZN_2,0.0,0.00,0.00,0.00,70.95,24.37,34.91,1,1,1,68.53,73.11,0.00,48.74,33.54,36.28,2.74,554.22,TARP,TARP,201.98,133.74,56.47,77.26,6,1,0,Yes
 Zone Information, PERIMETER_TOP_ZN_1,0.0,0.00,0.00,0.00,36.55,2.20,34.91,1,1,1,0.00,73.11,0.00,4.57,33.54,36.28,2.74,860.02,TARP,TARP,313.42,200.61,84.71,115.90,7,1,0,Yes
 Zone Information, PERIMETER_TOP_ZN_4,0.0,0.00,0.00,0.00,2.16,24.37,34.91,1,1,1,0.00,4.57,0.00,48.74,33.54,36.28,2.74,554.22,TARP,TARP,201.98,133.74,56.47,77.26,6,1,0,Yes
 Zone Information, GROUNDFLOOR_PLENUM,0.0,0.00,0.00,0.00,36.55,24.37,3.35,1,1,1,0.00,73.11,0.00,48.74,2.74,3.96,1.22,4344.14,TARP,TARP,3563.11,297.11,297.11,0.00,11,0,0,No
 Zone Information, MIDFLOOR_PLENUM,0.0,0.00,0.00,0.00,36.55,24.37,20.12,1,10,1,0.00,73.11,0.00,48.74,19.51,20.73,1.22,4344.14,TARP,TARP,3563.11,297.11,297.11,0.00,11,0,0,No
 Zone Information, TOPFLOOR_PLENUM,0.0,0.00,0.00,0.00,36.55,24.37,36.89,1,1,1,0.00,73.11,0.00,48.74,36.28,37.50,1.22,4344.14,TARP,TARP,3563.11,297.11,297.11,0.00,11,0,0,No
 Zone Information, DATACENTER_BOT_ZN_6,0.0,5.49,44.17,0.00,5.03,24.37,1.37,1,1,1,4.57,5.49,4.57,44.17,0.00,2.74,2.74,99.34,TARP,TARP,36.20,0.00,0.00,0.00,6,0,0,Yes
 Zone Information, DATACENTER_MID_ZN_6,0.0,4.57,4.57,16.77,5.03,24.37,18.14,1,10,1,4.57,5.49,4.57,44.17,16.77,19.51,2.74,99.34,TARP,TARP,36.20,0.00,0.00,0.00,6,0,0,Yes
 Zone Information, DATACENTER_TOP_ZN_6,0.0,4.57,4.57,33.54,5.03,24.37,34.91,1,1,1,4.57,5.49,4.57,44.17,33.54,36.28,2.74,99.34,TARP,TARP,36.20,0.00,0.00,0.00,6,0,0,Yes
 Zone Information, DATACENTER_BASEMENT_ZN_6,0.0,16.08,0.00,-2.44,8.04,24.37,-1.22,1,1,1,0.00,16.08,0.00,48.74,-2.44,0.00,2.44,1911.37,TARP,TARP,783.68,0.00,0.00,0.00,10,0,0,Yes
! <Zone Internal Gains/Equipment Information - Nominal>,Zone Name, Floor Area {m2},# Occupants,Area per Occupant {m2/person},Occupant per Area {person/m2},Interior Lighting {W/m2},Electric Load {W/m2},Gas Load {W/m2},Other Load {W/m2},Hot Water Eq {W/m2},Steam Equipment {W/m2},Sum Loads per Area {W/m2},Outdoor Controlled Baseboard Heat
 Zone Internal Gains, BASEMENT,2779.43,149.6,18.579,5.382E-002,8.826,4.842,0.000,0.000,0.000,0.000,13.668,No
 Zone Internal Gains, CORE_BOTTOM,2496.12,134.4,18.579,5.382E-002,8.826,8.070,0.000,0.000,0.000,0.000,16.896,No
 Zone Internal Gains, CORE_MID,2496.12,134.4,18.579,5.382E-002,8.826,8.070,0.000,0.000,0.000,0.000,16.896,No
 Zone Internal Gains, CORE_TOP,2496.12,134.4,18.579,5.382E-002,8.826,8.070,0.000,0.000,0.000,0.000,16.896,No
 Zone Internal Gains, PERIMETER_BOT_ZN_3,313.41,16.9,18.579,5.382E-002,8.826,8.070,0.000,0.000,0.000,0.000,16.896,No
 Zone Internal Gains, PERIMETER_BOT_ZN_2,201.98,10.9,18.579,5.382E-002,8.826,8.070,0.000,0.000,0.000,0.000,16.896,No
 Zone Internal Gains, PERIMETER_BOT_ZN_1,313.42,16.9,18.579,5.382E-002,8.826,8.070,0.000,0.000,0.000,0.000,16.896,No
 Zone Internal Gains, PERIMETER_BOT_ZN_4,201.98,10.9,18.579,5.382E-002,8.826,8.070,0.000,0.000,0.000,0.000,16.896,No
 Zone Internal Gains, PERIMETER_MID_ZN_3,313.41,16.9,18.579,5.382E-002,8.826,8.070,0.000,0.000,0.000,0.000,16.896,No
 Zone Internal Gains, PERIMETER_MID_ZN_2,201.98,10.9,18.579,5.382E-002,8.826,8.070,0.000,0.000,0.000,0.000,16.896,No
 Zone Internal Gains, PERIMETER_MID_ZN_1,313.42,16.9,18.579,5.382E-002,8.826,8.070,0.000,0.000,0.000,0.000,16.896,No
 Zone Internal Gains, PERIMETER_MID_ZN_4,201.98,10.9,18.579,5.382E-002,8.826,8.070,0.000,0.000,0.000,0.000,16.896,No
 Zone Internal Gains, PERIMETER_TOP_ZN_3,313.41,16.9,18.579,5.382E-002,8.826,8.070,0.000,0.000,0.000,0.000,16.896,No
 Zone Internal Gains, PERIMETER_TOP_ZN_2,201.98,10.9,18.579,5.382E-002,8.826,8.070,0.000,0.000,0.000,0.000,16.896,No
 Zone Internal Gains, PERIMETER_TOP_ZN_1,313.42,16.9,18.579,5.382E-002,8.826,8.070,0.000,0.000,0.000,0.000,16.896,No
 Zone Internal Gains, PERIMETER_TOP_ZN_4,201.98,10.9,18.579,5.382E-002,8.826,8.070,0.000,0.000,0.000,0.000,16.896,No
 Zone Internal Gains, GROUNDFLOOR_PLENUM,3563.11,0.0,N/A,0.000,0.000,0.000,0.000,0.000,0.000,0.000,0.000,No
 Zone Internal Gains, MIDFLOOR_PLENUM,3563.11,0.0,N/A,0.000,0.000,0.000,0.000,0.000,0.000,0.000,0.000,No
 Zone Internal Gains, TOPFLOOR_PLENUM,3563.11,0.0,N/A,0.000,0.000,0.000,0.000,0.000,0.000,0.000,0.000,No
 Zone Internal Gains, DATACENTER_BOT_ZN_6,36.20,0.0,N/A,0.000,8.826,215.299,0.000,0.000,0.000,0.000,224.126,No
 Zone Internal Gains, DATACENTER_MID_ZN_6,36.20,0.0,N/A,0.000,8.826,215.299,0.000,0.000,0.000,0.000,224.126,No
 Zone Internal Gains, DATACENTER_TOP_ZN_6,36.20,0.0,N/A,0.000,8.826,215.299,0.000,0.000,0.000,0.000,224.126,No
 Zone Internal Gains, DATACENTER_BASEMENT_ZN_6,783.68,0.0,N/A,0.000,8.826,484.423,0.000,0.000,0.000,0.000,493.250,No
! <People Internal Gains - Nominal>,Name,Schedule Name,Zone Name,Zone Floor Area {m2},# Zone Occupants,Number of People {},People/Floor Area {person/m2},Floor Area per person {m2/person},Fraction Radiant,Fraction Convected,Sensible Fraction Calculation,Activity level,ASHRAE 55 Warnings,Carbon Dioxide Generation Rate,Nominal Minimum Number of People,Nominal Maximum Number of People,MRT Calculation Type,Work Efficiency, Clothing Insulation Calculation Method,Clothing Insulation Calculation Method Schedule,Clothing,Air Velocity,Fanger Calculation,Pierce Calculation,KSU Calculation
 People Internal Gains, BASEMENT,BLDG_OCC_SCH,BASEMENT,2779.43,149.6,149.6,5.382E-002,18.579,0.300,0.700,AutoCalculate,ACTIVITY_SCH,No,3.8200E-008,0,150,Zone Averaged,WORK_EFF_SCH,Clothing Insulation Schedule,N/A,CLOTHING_SCH,AIR_VELO_SCH,Yes,No,No
 People Internal Gains, CORE_BOTTOM,BLDG_OCC_SCH,CORE_BOTTOM,2496.12,134.4,134.4,5.382E-002,18.579,0.300,0.700,AutoCalculate,ACTIVITY_SCH,No,3.8200E-008,0,134,Zone Averaged,WORK_EFF_SCH,Clothing Insulation Schedule,N/A,CLOTHING_SCH,AIR_VELO_SCH,Yes,No,No
 People Internal Gains, CORE_MID,BLDG_OCC_SCH,CORE_MID,2496.12,134.4,134.4,5.382E-002,18.579,0.300,0.700,AutoCalculate,ACTIVITY_SCH,No,3.8200E-008,0,134,Zone Averaged,WORK_EFF_SCH,Clothing Insulation Schedule,N/A,CLOTHING_SCH,AIR_VELO_SCH,Yes,No,No
 People Internal Gains, CORE_TOP,BLDG_OCC_SCH,CORE_TOP,2496.12,134.4,134.4,5.382E-002,18.579,0.300,0.700,AutoCalculate,ACTIVITY_SCH,No,3.8200E-008,0,134,Zone Averaged,WORK_EFF_SCH,Clothing Insulation Schedule,N/A,CLOTHING_SCH,AIR_VELO_SCH,Yes,No,No
 People Internal Gains, PERIMETER_BOT_ZN_3,BLDG_OCC_SCH,PERIMETER_BOT_ZN_3,313.41,16.9,16.9,5.382E-002,18.579,0.300,0.700,AutoCalculate,ACTIVITY_SCH,No,3.8200E-008,0,17,Zone Averaged,WORK_EFF_SCH,Clothing Insulation Schedule,N/A,CLOTHING_SCH,AIR_VELO_SCH,Yes,No,No
 People Internal Gains, PERIMETER_BOT_ZN_2,BLDG_OCC_SCH,PERIMETER_BOT_ZN_2,201.98,10.9,10.9,5.382E-002,18.579,0.300,0.700,AutoCalculate,ACTIVITY_SCH,No,3.8200E-008,0,11,Zone Averaged,WORK_EFF_SCH,Clothing Insulation Schedule,N/A,CLOTHING_SCH,AIR_VELO_SCH,Yes,No,No
 People Internal Gains, PERIMETER_BOT_ZN_1,BLDG_OCC_SCH,PERIMETER_BOT_ZN_1,313.42,16.9,16.9,5.382E-002,18.579,0.300,0.700,AutoCalculate,ACTIVITY_SCH,No,3.8200E-008,0,17,Zone Averaged,WORK_EFF_SCH,Clothing Insulation Schedule,N/A,CLOTHING_SCH,AIR_VELO_SCH,Yes,No,No
 People Internal Gains, PERIMETER_BOT_ZN_4,BLDG_OCC_SCH,PERIMETER_BOT_ZN_4,201.98,10.9,10.9,5.382E-002,18.579,0.300,0.700,AutoCalculate,ACTIVITY_SCH,No,3.8200E-008,0,11,Zone Averaged,WORK_EFF_SCH,Clothing Insulation Schedule,N/A,CLOTHING_SCH,AIR_VELO_SCH,Yes,No,No
 People Internal Gains, PERIMETER_MID_ZN_3,BLDG_OCC_SCH,PERIMETER_MID_ZN_3,313.41,16.9,16.9,5.382E-002,18.579,0.300,0.700,AutoCalculate,ACTIVITY_SCH,No,3.8200E-008,0,17,Zone Averaged,WORK_EFF_SCH,Clothing Insulation Schedule,N/A,CLOTHING_SCH,AIR_VELO_SCH,Yes,No,No
 People Internal Gains, PERIMETER_MID_ZN_2,BLDG_OCC_SCH,PERIMETER_MID_ZN_2,201.98,10.9,10.9,5.382E-002,18.579,0.300,0.700,AutoCalculate,ACTIVITY_SCH,No,3.8200E-008,0,11,Zone Averaged,WORK_EFF_SCH,Clothing Insulation Schedule,N/A,CLOTHING_SCH,AIR_VELO_SCH,Yes,No,No
 People Internal Gains, PERIMETER_MID_ZN_1,BLDG_OCC_SCH,PERIMETER_MID_ZN_1,313.42,16.9,16.9,5.382E-002,18.579,0.300,0.700,AutoCalculate,ACTIVITY_SCH,No,3.8200E-008,0,17,Zone Averaged,WORK_EFF_SCH,Clothing Insulation Schedule,N/A,CLOTHING_SCH,AIR_VELO_SCH,Yes,No,No
 People Internal Gains, PERIMETER_MID_ZN_4,BLDG_OCC_SCH,PERIMETER_MID_ZN_4,201.98,10.9,10.9,5.382E-002,18.579,0.300,0.700,AutoCalculate,ACTIVITY_SCH,No,3.8200E-008,0,11,Zone Averaged,WORK_EFF_SCH,Clothing Insulation Schedule,N/A,CLOTHING_SCH,AIR_VELO_SCH,Yes,No,No
 People Internal Gains, PERIMETER_TOP_ZN_3,BLDG_OCC_SCH,PERIMETER_TOP_ZN_3,313.41,16.9,16.9,5.382E-002,18.579,0.300,0.700,AutoCalculate,ACTIVITY_SCH,No,3.8200E-008,0,17,Zone Averaged,WORK_EFF_SCH,Clothing Insulation Schedule,N/A,CLOTHING_SCH,AIR_VELO_SCH,Yes,No,No
 People Internal Gains, PERIMETER_TOP_ZN_2,BLDG_OCC_SCH,PERIMETER_TOP_ZN_2,201.98,10.9,10.9,5.382E-002,18.579,0.300,0.700,AutoCalculate,ACTIVITY_SCH,No,3.8200E-008,0,11,Zone Averaged,WORK_EFF_SCH,Clothing Insulation Schedule,N/A,CLOTHING_SCH,AIR_VELO_SCH,Yes,No,No
 People Internal Gains, PERIMETER_TOP_ZN_1,BLDG_OCC_SCH,PERIMETER_TOP_ZN_1,313.42,16.9,16.9,5.382E-002,18.579,0.300,0.700,AutoCalculate,ACTIVITY_SCH,No,3.8200E-008,0,17,Zone Averaged,WORK_EFF_SCH,Clothing Insulation Schedule,N/A,CLOTHING_SCH,AIR_VELO_SCH,Yes,No,No
 People Internal Gains, PERIMETER_TOP_ZN_4,BLDG_OCC_SCH,PERIMETER_TOP_ZN_4,201.98,10.9,10.9,5.382E-002,18.579,0.300,0.700,AutoCalculate,ACTIVITY_SCH,No,3.8200E-008,0,11,Zone Averaged,WORK_EFF_SCH,Clothing Insulation Schedule,N/A,CLOTHING_SCH,AIR_VELO_SCH,Yes,No,No
! <Lights Internal Gains - Nominal>,Name,Schedule Name,Zone Name,Zone Floor Area {m2},# Zone Occupants,Lighting Level {W},Lights/Floor Area {W/m2},Lights per person {W/person},Fraction Return Air,Fraction Radiant,Fraction Short Wave,Fraction Convected,Fraction Replaceable,End-Use Category,Nominal Minimum Lighting Level {W},Nominal Maximum Lighting Level {W}
 Lights Internal Gains, BASEMENT_LIGHTS,BLDG_LIGHT_SCH,BASEMENT,2779.43,149.6,24532.349,8.826,163.984,0.000,0.700,0.200,0.100,1.000,General Lights,0.000,24532.349
 Lights Internal Gains, CORE_BOTTOM_LIGHTS,BLDG_LIGHT_SCH,CORE_BOTTOM,2496.12,134.4,22031.774,8.826,163.984,0.000,0.700,0.200,0.100,1.000,General Lights,0.000,22031.774
 Lights Internal Gains, CORE_MID_LIGHTS,BLDG_LIGHT_SCH,CORE_MID,2496.12,134.4,22031.774,8.826,163.984,0.000,0.700,0.200,0.100,1.000,General Lights,0.000,22031.774
 Lights Internal Gains, CORE_TOP_LIGHTS,BLDG_LIGHT_SCH,CORE_TOP,2496.12,134.4,22031.774,8.826,163.984,0.000,0.700,0.200,0.100,1.000,General Lights,0.000,22031.774
 Lights Internal Gains, PERIMETER_BOT_ZN_3_LIGHTS,BLDG_LIGHT_SCH,PERIMETER_BOT_ZN_3,313.41,16.9,2766.309,8.826,163.984,0.000,0.700,0.200,0.100,1.000,General Lights,0.000,2766.309
 Lights Internal Gains, PERIMETER_BOT_ZN_2_LIGHTS,BLDG_LIGHT_SCH,PERIMETER_BOT_ZN_2,201.98,10.9,1782.715,8.826,163.984,0.000,0.700,0.200,0.100,1.000,General Lights,0.000,1782.715
 Lights Internal Gains, PERIMETER_BOT_ZN_1_LIGHTS,BLDG_LIGHT_SCH,PERIMETER_BOT_ZN_1,313.42,16.9,2766.370,8.826,163.984,0.000,0.700,0.200,0.100,1.000,General Lights,0.000,2766.370
 Lights Internal Gains, PERIMETER_BOT_ZN_4_LIGHTS,BLDG_LIGHT_SCH,PERIMETER_BOT_ZN_4,201.98,10.9,1782.715,8.826,163.984,0.000,0.700,0.200,0.100,1.000,General Lights,0.000,1782.715
 Lights Internal Gains, PERIMETER_MID_ZN_3_LIGHTS,BLDG_LIGHT_SCH,PERIMETER_MID_ZN_3,313.41,16.9,2766.309,8.826,163.984,0.000,0.700,0.200,0.100,1.000,General Lights,0.000,2766.309
 Lights Internal Gains, PERIMETER_MID_ZN_2_LIGHTS,BLDG_LIGHT_SCH,PERIMETER_MID_ZN_2,201.98,10.9,1782.715,8.826,163.984,0.000,0.700,0.200,0.100,1.000,General Lights,0.000,1782.715
 Lights Internal Gains, PERIMETER_MID_ZN_1_LIGHTS,BLDG_LIGHT_SCH,PERIMETER_MID_ZN_1,313.42,16.9,2766.370,8.826,163.984,0.000,0.700,0.200,0.100,1.000,General Lights,0.000,2766.370
 Lights Internal Gains, PERIMETER_MID_ZN_4_LIGHTS,BLDG_LIGHT_SCH,PERIMETER_MID_ZN_4,201.98,10.9,1782.715,8.826,163.984,0.000,0.700,0.200,0.100,1.000,General Lights,0.000,1782.715
 Lights Internal Gains, PERIMETER_TOP_ZN_3_LIGHTS,BLDG_LIGHT_SCH,PERIMETER_TOP_ZN_3,313.41,16.9,2766.309,8.826,163.984,0.000,0.700,0.200,0.100,1.000,General Lights,0.000,2766.309
 Lights Internal Gains, PERIMETER_TOP_ZN_2_LIGHTS,BLDG_LIGHT_SCH,PERIMETER_TOP_ZN_2,201.98,10.9,1782.715,8.826,163.984,0.000,0.700,0.200,0.100,1.000,General Lights,0.000,1782.715
 Lights Internal Gains, PERIMETER_TOP_ZN_1_LIGHTS,BLDG_LIGHT_SCH,PERIMETER_TOP_ZN_1,313.42,16.9,2766.370,8.826,163.984,0.000,0.700,0.200,0.100,1.000,General Lights,0.000,2766.370
 Lights Internal Gains, PERIMETER_TOP_ZN_4_LIGHTS,BLDG_LIGHT_SCH,PERIMETER_TOP_ZN_4,201.98,10.9,1782.715,8.826,163.984,0.000,0.700,0.200,0.100,1.000,General Lights,0.000,1782.715
 Lights Internal Gains, DATACENTER_BASEMENT_LIGHTS,BLDG_LIGHT_SCH,DATACENTER_BASEMENT_ZN_6,783.68,0.0,6917.073,8.826,N/A,0.000,0.700,0.200,0.100,1.000,DataCenter_Lights,0.000,6917.073
 Lights Internal Gains, DATACENTER_BOT_LIGHTS,BLDG_LIGHT_SCH,DATACENTER_BOT_ZN_6,36.20,0.0,319.540,8.826,N/A,0.000,0.700,0.200,0.100,1.000,DataCenter_Lights,0.000,319.540
 Lights Internal Gains, DATACENTER_MID_LIGHTS,BLDG_LIGHT_SCH,DATACENTER_MID_ZN_6,36.20,0.0,319.540,8.826,N/A,0.000,0.700,0.200,0.100,1.000,DataCenter_Lights,0.000,319.540
 Lights Internal Gains, DATACENTER_TOP_LIGHTS,BLDG_LIGHT_SCH,DATACENTER_TOP_ZN_6,36.20,0.0,319.540,8.826,N/A,0.000,0.700,0.200,0.100,1.000,DataCenter_Lights,0.000,319.540
! <ElectricEquipment Internal Gains - Nominal>,Name,Schedule Name,Zone Name,Zone Floor Area {m2},# Zone Occupants,Equipment Level {W},Equipment/Floor Area {W/m2},Equipment per person {W/person},Fraction Latent,Fraction Radiant,Fraction Lost,Fraction Convected,End-Use SubCategory,Nominal Minimum Equipment Level {W},Nominal Maximum Equipment Level {W}
 ElectricEquipment Internal Gains, BASEMENT_MISCPLUG_EQUIP,ALWAYS_ON,BASEMENT,2779.43,149.6,13457.544,4.842,89.956,0.000,0.500,0.000,0.500,MiscPlug,13457.544,13457.544
 ElectricEquipment Internal Gains, CORE_BOTTOM_MISCPLUG_EQUIP,BLDG_EQUIP_SCH,CORE_BOTTOM,2496.12,134.4,20142.877,8.070,149.925,0.000,0.500,0.000,0.500,MiscPlug,0.000,20142.877
 ElectricEquipment Internal Gains, CORE_MID_MISCPLUG_EQUIP,BLDG_EQUIP_SCH,CORE_MID,2496.12,134.4,20142.800,8.070,149.924,0.000,0.500,0.000,0.500,MiscPlug,0.000,20142.800
 ElectricEquipment Internal Gains, CORE_TOP_MISCPLUG_EQUIP,BLDG_EQUIP_SCH,CORE_TOP,2496.12,134.4,20142.800,8.070,149.924,0.000,0.500,0.000,0.500,MiscPlug,0.000,20142.800
 ElectricEquipment Internal Gains, PERIMETER_BOT_ZN_3_MISCPLUG_EQUIP,BLDG_EQUIP_SCH,PERIMETER_BOT_ZN_3,313.41,16.9,2529.242,8.070,149.931,0.000,0.500,0.000,0.500,MiscPlug,0.000,2529.242
 ElectricEquipment Internal Gains, PERIMETER_BOT_ZN_2_MISCPLUG_EQUIP,BLDG_EQUIP_SCH,PERIMETER_BOT_ZN_2,201.98,10.9,1629.940,8.070,149.931,0.000,0.500,0.000,0.500,MiscPlug,0.000,1629.940
 ElectricEquipment Internal Gains, PERIMETER_BOT_ZN_1_MISCPLUG_EQUIP,BLDG_EQUIP_SCH,PERIMETER_BOT_ZN_1,313.42,16.9,2529.281,8.070,149.930,0.000,0.500,0.000,0.500,MiscPlug,0.000,2529.281
 ElectricEquipment Internal Gains, PERIMETER_BOT_ZN_4_MISCPLUG_EQUIP,BLDG_EQUIP_SCH,PERIMETER_BOT_ZN_4,201.98,10.9,1629.929,8.070,149.930,0.000,0.500,0.000,0.500,MiscPlug,0.000,1629.929
 ElectricEquipment Internal Gains, PERIMETER_MID_ZN_3_MISCPLUG_EQUIP,BLDG_EQUIP_SCH,PERIMETER_MID_ZN_3,313.41,16.9,2529.242,8.070,149.931,0.000,0.500,0.000,0.500,MiscPlug,0.000,2529.242
 ElectricEquipment Internal Gains, PERIMETER_MID_ZN_2_MISCPLUG_EQUIP,BLDG_EQUIP_SCH,PERIMETER_MID_ZN_2,201.98,10.9,1629.940,8.070,149.931,0.000,0.500,0.000,0.500,MiscPlug,0.000,1629.940
 ElectricEquipment Internal Gains, PERIMETER_MID_ZN_1_MISCPLUG_EQUIP,BLDG_EQUIP_SCH,PERIMETER_MID_ZN_1,313.42,16.9,2529.281,8.070,149.930,0.000,0.500,0.000,0.500,MiscPlug,0.000,2529.281
 ElectricEquipment Internal Gains, PERIMETER_MID_ZN_4_MISCPLUG_EQUIP,BLDG_EQUIP_SCH,PERIMETER_MID_ZN_4,201.98,10.9,1629.929,8.070,149.930,0.000,0.500,0.000,0.500,MiscPlug,0.000,1629.929
 ElectricEquipment Internal Gains, PERIMETER_TOP_ZN_3_MISCPLUG_EQUIP,BLDG_EQUIP_SCH,PERIMETER_TOP_ZN_3,313.41,16.9,2529.242,8.070,149.931,0.000,0.500,0.000,0.500,MiscPlug,0.000,2529.242
 ElectricEquipment Internal Gains, PERIMETER_TOP_ZN_2_MISCPLUG_EQUIP,BLDG_EQUIP_SCH,PERIMETER_TOP_ZN_2,201.98,10.9,1629.940,8.070,149.931,0.000,0.500,0.000,0.500,MiscPlug,0.000,1629.940
 ElectricEquipment Internal Gains, PERIMETER_TOP_ZN_1_MISCPLUG_EQUIP,BLDG_EQUIP_SCH,PERIMETER_TOP_ZN_1,313.42,16.9,2529.281,8.070,149.930,0.000,0.500,0.000,0.500,MiscPlug,0.000,2529.281
 ElectricEquipment Internal Gains, PERIMETER_TOP_ZN_4_MISCPLUG_EQUIP,BLDG_EQUIP_SCH,PERIMETER_TOP_ZN_4,201.98,10.9,1629.929,8.070,149.930,0.000,0.500,0.000,0.500,MiscPlug,0.000,1629.929
 ElectricEquipment Internal Gains, DATACENTER_BASEMENT_MISCPLUG_EQUIP,ALWAYS_ON,DATACENTER_BASEMENT_ZN_6,783.68,0.0,379632.522,484.423,N/A,0.000,0.500,0.000,0.500,DataCenter_PlugLoads,379632.522,379632.522
 ElectricEquipment Internal Gains, DATACENTER_BOT_MISCPLUG_EQUIP,ALWAYS_ON,DATACENTER_BOT_ZN_6,36.20,0.0,7794.422,215.299,N/A,0.000,0.500,0.000,0.500,DataCenter_PlugLoads,7794.422,7794.422
 ElectricEquipment Internal Gains, DATACENTER_MID_MISCPLUG_EQUIP,ALWAYS_ON,DATACENTER_MID_ZN_6,36.20,0.0,7794.422,215.299,N/A,0.000,0.500,0.000,0.500,DataCenter_PlugLoads,7794.422,7794.422
 ElectricEquipment Internal Gains, DATACENTER_TOP_MISCPLUG_EQUIP,ALWAYS_ON,DATACENTER_TOP_ZN_6,36.20,0.0,7794.422,215.299,N/A,0.000,0.500,0.000,0.500,DataCenter_PlugLoads,7794.422,7794.422
! <Construction CTF>,Construction Name,Index,#Layers,#CTFs,Time Step {hours},ThermalConductance {w/m2-K},OuterThermalAbsorptance,InnerThermalAbsorptance,OuterSolarAbsorptance,InnerSolarAbsorptance,Roughness
! <Material CTF Summary>,Material Name,Thickness {m},Conductivity {w/m-K},Density {kg/m3},Specific Heat {J/kg-K},ThermalResistance {m2-K/w}
! <Material:Air>,Material Name,ThermalResistance {m2-K/w}
! <CTF>,Time,Outside,Cross,Inside,Flux (except final one)
 Construction CTF,INTERIORFURNISHINGS,   1,   1,  17,   0.100,     0.8000    ,   0.900,   0.900,   0.700,   0.700,MediumSmooth
 Material CTF Summary,STD WOOD 6INCH,  0.1500,         0.120,    540.000,     1210.000,   1.250    
 CTF,  17,     -0.90079007E-12,      0.10053588E-19,     -0.90079705E-12,      0.36041705E-13
 CTF,  16,      0.12994501E-09,      0.14362381E-15,      0.12994500E-09,     -0.52870379E-11
 CTF,  15,     -0.10704352E-07,      0.35215962E-15,     -0.10704352E-07,      0.44428442E-09
 CTF,  14,      0.56022885E-06,      0.75971587E-14,      0.56022885E-06,     -0.23797974E-07
 CTF,  13,     -0.19623129E-04,      0.11875298E-11,     -0.19623129E-04,      0.85638647E-06
 CTF,  12,      0.47329417E-03,      0.84635786E-10,      0.47329417E-03,     -0.21312361E-04
 CTF,  11,     -0.79913137E-02,      0.28374579E-08,     -0.79913137E-02,      0.37305091E-03
 CTF,  10,      0.95413482E-01,      0.47432590E-07,      0.95413482E-01,     -0.46404581E-02
 CTF,   9,     -0.81085452    ,      0.40799225E-06,     -0.81085452    ,      0.41289246E-01
 CTF,   8,       4.9254726    ,      0.18261187E-05,       4.9254726    ,     -0.26380912    
 CTF,   7,      -21.427375    ,      0.42223363E-05,      -21.427375    ,       1.2120212    
 CTF,   6,       66.676295    ,      0.49043847E-05,       66.676295    ,      -3.9960028    
 CTF,   5,      -147.48837    ,      0.27066883E-05,      -147.48837    ,       9.3877258    
 CTF,   4,       228.64255    ,      0.64260075E-06,       228.64255    ,      -15.479788    
 CTF,   3,      -241.64982    ,      0.54857284E-07,      -241.64982    ,       17.414460    
 CTF,   2,       165.25879    ,      0.11609948E-08,       165.25879    ,      -12.676999    
 CTF,   1,      -65.742762    ,      0.86072332E-11,      -65.742762    ,       5.3653721    
 CTF,   0,       11.528221    ,     -0.10989922E-11,       11.528221    
 Construction CTF,AIR_WALL,   2,   1,   1,   0.017,      4.809    ,   0.900,   0.900,   0.700,   0.700,Rough
 Material CTF Summary,AIR_WALL_MATERIAL,  0.0000,         0.000,      0.000,        0.000,  0.2079    
 CTF,   1,       0.0000000    ,       0.0000000    ,      -0.0000000    ,      -0.0000000    
 CTF,   0,       4.8088691    ,       4.8088691    ,       4.8088691    
 Construction CTF,DROPCEILING,   3,   1,   5,   0.017,      4.488    ,   0.900,   0.900,   0.700,   0.700,MediumSmooth
 Material CTF Summary,AC02 ACOUSTIC CEILING,  0.0127,         0.057,    288.000,     1339.000,  0.2228    
 CTF,   5,     -0.43576264E-05,      0.32533453E-06,     -0.43576264E-05,      0.35441793E-07
 CTF,   4,      0.45178569E-02,      0.57997009E-03,      0.45178569E-02,     -0.48068764E-04
 CTF,   3,     -0.48570000    ,      0.54522555E-01,     -0.48570000    ,      0.77136304E-02
 CTF,   2,       7.1688400    ,      0.52847179    ,       7.1688400    ,     -0.17737175    
 CTF,   1,      -22.746003    ,      0.64259973    ,      -22.746003    ,      0.88271706    
 CTF,   0,       17.346410    ,      0.61886911E-01,       17.346410    
 Construction CTF,OPAQUEDOOR,   4,   1,   1,   0.017,      8.100    ,   0.900,   0.900,   0.700,   0.700,MediumRough
 Material CTF Summary,STD OPAQUE DOOR PANEL,  0.0000,         0.000,      0.000,        0.000,  0.1235    
 CTF,   1,       0.0000000    ,       0.0000000    ,      -0.0000000    ,      -0.0000000    
 CTF,   0,       8.1000000    ,       8.1000000    ,       8.1000000    
 Construction CTF,ATTICROOFDECK,   5,   2,   9,   0.017,      4.706    ,   0.900,   0.900,   0.700,   0.700,VeryRough
 Material CTF Summary,F12 ASPHALT SHINGLES,  0.0032,         0.040,   1120.000,     1260.000,  0.8000E-01
 Material CTF Summary,G02 16MM PLYWOOD,  0.0159,         0.120,    544.000,     1210.000,  0.1325    
 CTF,   9,     -0.78519687E-11,     -0.19725818E-14,     -0.15717900E-13,      0.15242731E-15
 CTF,   8,      0.37588610E-07,      0.16990853E-10,      0.14283227E-08,     -0.12153301E-10
 CTF,   7,     -0.19148750E-04,      0.56359084E-07,     -0.19686200E-05,      0.17272824E-07
 CTF,   6,      0.29192917E-02,      0.22484811E-04,      0.59989187E-03,     -0.57451316E-05
 CTF,   5,     -0.15007605    ,      0.16493234E-02,     -0.52187459E-01,      0.57271756E-03
 CTF,   4,       2.7151590    ,      0.26999827E-01,       1.4298365    ,     -0.18756129E-01
 CTF,   3,      -19.150031    ,      0.10664374    ,      -13.356877    ,      0.21816812    
 CTF,   2,       57.115955    ,      0.96773865E-01,       47.295601    ,     -0.97882392    
 CTF,   1,      -72.385517    ,      0.14849183E-01,      -66.325100    ,       1.7263494    
 CTF,   0,       32.098647    ,      0.99392441E-04,       31.255166    
 Construction CTF,INT_WALL,   6,   2,   9,   0.017,      6.299    ,   0.900,   0.900,   0.700,   0.700,Smooth
 Material CTF Summary,G01 13MM GYPSUM BOARD,  0.0127,         0.160,    800.000,     1090.000,  0.7937E-01
 Material CTF Summary,G01 13MM GYPSUM BOARD,  0.0127,         0.160,    800.000,     1090.000,  0.7937E-01
 CTF,   9,     -0.12864864E-10,      0.19924024E-12,     -0.12864866E-10,      0.20356029E-13
 CTF,   8,      0.28581050E-07,      0.80512746E-09,      0.28581050E-07,     -0.57880166E-10
 CTF,   7,     -0.19015195E-04,      0.61885852E-06,     -0.19015195E-04,      0.52113948E-07
 CTF,   6,      0.36312852E-02,      0.10455019E-03,      0.36312852E-02,     -0.13799496E-04
 CTF,   5,     -0.20653166    ,      0.42754902E-02,     -0.20653166    ,      0.10942145E-02
 CTF,   4,       3.9016148    ,      0.45374246E-01,       3.9016148    ,     -0.28783696E-01
 CTF,   3,      -27.862527    ,      0.12703483    ,      -27.862527    ,      0.28290664    
 CTF,   2,       82.798732    ,      0.85517023E-01,       82.798732    ,      -1.1270974    
 CTF,   1,      -103.81107    ,      0.96927578E-02,      -103.81107    ,       1.8287075    
 CTF,   0,       45.448212    ,      0.41260040E-04,       45.448212    
 Construction CTF,EXT_SLAB_8IN_WITH_CARPET,   7,   2,  10,   0.117,      3.285    ,   0.900,   0.900,   0.700,   0.700,MediumRough
 Material CTF Summary,200MM NORMALWEIGHT CONCRETE FLOOR,  0.2032,         2.310,   2322.000,      832.000,  0.8797E-01
 Material CTF Summary,CP02 CARPET PAD,  0.0000,         0.000,      0.000,        0.000,  0.2165    
 CTF,  10,      0.91217396E-10,      0.12066199E-12,      0.43442676E-12,     -0.34263869E-13
 CTF,   9,     -0.13339235E-06,      0.14971363E-09,     -0.61933620E-09,      0.77339419E-10
 CTF,   8,      0.60511275E-04,      0.50648844E-07,      0.32924193E-06,     -0.53971974E-07
 CTF,   7,     -0.86826746E-02,      0.49380015E-05,     -0.62492280E-04,      0.11744830E-04
 CTF,   6,      0.42045978    ,      0.14553982E-03,      0.42160742E-02,     -0.84674922E-03
 CTF,   5,      -7.6281196    ,      0.13530616E-02,     -0.10714107    ,      0.22283744E-01
 CTF,   4,       58.507638    ,      0.39774644E-02,       1.1219226    ,     -0.23838991    
 CTF,   3,      -210.01536    ,      0.35868711E-02,      -5.2727467    ,       1.1377900    
 CTF,   2,       371.32864    ,      0.65678470E-03,       11.684734    ,      -2.5535954    
 CTF,   1,      -313.31785    ,      0.14323339E-03,      -11.897712    ,       2.6297558    
 CTF,   0,       100.72304    ,      0.44180478E-04,       4.4766127    
 Construction CTF,EXT_SLAB_8IN,   8,   1,  15,   0.017,      11.37    ,   0.900,   0.900,   0.700,   0.700,MediumRough
 Material CTF Summary,200MM NORMALWEIGHT CONCRETE FLOOR,  0.2032,         2.310,   2322.000,      832.000,  0.8797E-01
 CTF,  15,     -0.62489228E-03,     -0.57491905E-15,     -0.62489228E-03,      0.28991473E-05
 CTF,  14,      0.25859840E-01,      0.22070226E-14,      0.25859840E-01,     -0.12147574E-03
 CTF,  13,     -0.48670076    ,      0.38091237E-13,     -0.48670076    ,      0.23173486E-02
 CTF,  12,       5.5230165    ,      0.48693439E-11,       5.5230165    ,     -0.26684689E-01
 CTF,  11,      -42.242031    ,      0.26409231E-09,      -42.242031    ,      0.20734635    
 CTF,  10,       230.58655    ,      0.53205235E-08,       230.58655    ,      -1.1512577    
 CTF,   9,      -927.90180    ,      0.47544369E-07,      -927.90180    ,       4.7179422    
 CTF,   8,       2803.0059    ,      0.20292693E-06,       2803.0059    ,      -14.531377    
 CTF,   7,      -6409.6889    ,      0.42926213E-06,      -6409.6889    ,       33.920177    
 CTF,   6,       11099.064    ,      0.44926263E-06,       11099.064    ,      -60.024620    
 CTF,   5,      -14441.763    ,      0.22551308E-06,      -14441.763    ,       79.898416    
 CTF,   4,       13874.930    ,      0.49729558E-07,       13874.930    ,      -78.603089    
 CTF,   3,      -9534.5520    ,      0.43617640E-08,      -9534.5520    ,       55.357183    
 CTF,   2,       4427.6003    ,      0.24885225E-10,       4427.6003    ,      -26.365489    
 CTF,   1,      -1243.4484    ,      0.21505954E-10,      -1243.4484    ,       7.5992544    
 CTF,   0,       159.34768    ,     -0.27692343E-11,       159.34768    
 Construction CTF,EXT_SLAB_6IN_WITH_CARPET,   9,   2,  11,   0.067,      3.540    ,   0.900,   0.900,   0.700,   0.700,MediumRough
 Material CTF Summary,150MM NORMALWEIGHT CONCRETE FLOOR,  0.1524,         2.310,   2322.000,      832.000,  0.6597E-01
 Material CTF Summary,CP02 CARPET PAD,  0.0000,         0.000,      0.000,        0.000,  0.2165    
 CTF,  11,     -0.15669178E-11,     -0.92750921E-15,     -0.17888108E-13,      0.25895902E-14
 CTF,  10,      0.17037431E-08,      0.60417624E-13,      0.18865671E-10,     -0.30292718E-11
 CTF,   9,     -0.80665127E-06,      0.88128939E-10,     -0.88149545E-08,      0.15463184E-08
 CTF,   8,      0.17139434E-03,      0.30699272E-07,      0.19280478E-05,     -0.36361245E-06
 CTF,   7,     -0.15750186E-01,      0.30891254E-05,     -0.19175708E-03,      0.38103565E-04
 CTF,   6,      0.60673431    ,      0.97193759E-04,      0.83873326E-02,     -0.17245334E-02
 CTF,   5,      -9.9170053    ,      0.10056105E-02,     -0.16157392    ,      0.33955726E-01
 CTF,   4,       72.749024    ,      0.34043213E-02,       1.4253308    ,     -0.30404411    
 CTF,   3,      -256.16695    ,      0.37098324E-02,      -6.0391697    ,       1.3029302    
 CTF,   2,       448.94640    ,      0.90736545E-03,       12.569178    ,      -2.7377049    
 CTF,   1,      -377.13195    ,      0.17205551E-03,      -12.308061    ,       2.7039357    
 CTF,   0,       120.93858    ,      0.44460719E-04,       4.5153533    
 Construction CTF,EXT_SLAB_6IN,  10,   1,  11,   0.017,      15.16    ,   0.900,   0.900,   0.700,   0.700,MediumRough
 Material CTF Summary,150MM NORMALWEIGHT CONCRETE FLOOR,  0.1524,         2.310,   2322.000,      832.000,  0.6597E-01
 CTF,  11,     -0.21939064E-01,      0.53786681E-14,     -0.21939064E-01,      0.10178487E-03
 CTF,  10,      0.64988563    ,      0.41129313E-10,      0.64988563    ,     -0.30677891E-02
 CTF,   9,      -8.4373433    ,      0.10341421E-07,      -8.4373433    ,      0.40607941E-01
 CTF,   8,       63.318783    ,      0.47006520E-06,       63.318783    ,     -0.31138489    
 CTF,   7,      -305.06249    ,      0.64331797E-05,      -305.06249    ,       1.5363217    
 CTF,   6,       990.77210    ,      0.32540134E-04,       990.77210    ,      -5.1210618    
 CTF,   5,      -2214.4530    ,      0.65884549E-04,      -2214.4530    ,       11.772646    
 CTF,   4,       3409.1727    ,      0.53428016E-04,       3409.1727    ,      -18.678446    
 CTF,   3,      -3547.1194    ,      0.16039094E-04,      -3547.1194    ,       20.064317    
 CTF,   2,       2379.0044    ,      0.14528553E-05,       2379.0044    ,      -13.914476    
 CTF,   1,      -927.17128    ,      0.23838146E-07,      -927.17128    ,       5.6144305    
 CTF,   0,       159.34768    ,      0.10533514E-10,       159.34768    
 Construction CTF,INT_SLAB_FLOOR,  11,   2,   9,   0.033,      3.839    ,   0.900,   0.900,   0.700,   0.700,MediumRough
 Material CTF Summary,100MM NORMALWEIGHT CONCRETE FLOOR,  0.1016,         2.310,   2322.000,      832.000,  0.4398E-01
 Material CTF Summary,CP02 CARPET PAD,  0.0000,         0.000,      0.000,        0.000,  0.2165    
 CTF,   9,      0.37403193E-14,     -0.22400978E-15,     -0.19740008E-10,      0.51264724E-17
 CTF,   8,      0.30887990E-03,      0.43820143E-10,      0.55556998E-05,     -0.11383955E-05
 CTF,   7,     -0.26410297E-01,      0.84047718E-07,     -0.48304805E-03,      0.10025605E-03
 CTF,   6,      0.82217991    ,      0.11548211E-04,      0.15499758E-01,     -0.32544879E-02
 CTF,   5,      -11.731247    ,      0.32429097E-03,     -0.23230838    ,      0.49277582E-01
 CTF,   4,       81.889815    ,      0.23153540E-02,       1.7426778    ,     -0.37289939    
 CTF,   3,      -287.58037    ,      0.48643510E-02,      -6.7121893    ,       1.4471037    
 CTF,   2,       511.51122    ,      0.25453480E-02,       13.243360    ,      -2.8743141    
 CTF,   1,      -437.96036    ,      0.38740098E-03,      -12.598424    ,       2.7512751    
 CTF,   0,       143.08528    ,      0.35904521E-04,       4.5522761    
 Construction CTF,INT_SLAB_CEILING,  12,   2,   9,   0.033,      3.839    ,   0.900,   0.900,   0.700,   0.700,VeryRough
 Material CTF Summary,CP02 CARPET PAD,  0.0000,         0.000,      0.000,        0.000,  0.2165    
 Material CTF Summary,100MM NORMALWEIGHT CONCRETE FLOOR,  0.1016,         2.310,   2322.000,      832.000,  0.4398E-01
 CTF,   9,     -0.19740008E-10,     -0.22400978E-15,      0.37403193E-14,      0.51264724E-17
 CTF,   8,      0.55556998E-05,      0.43820143E-10,      0.30887990E-03,     -0.11383955E-05
 CTF,   7,     -0.48304805E-03,      0.84047718E-07,     -0.26410297E-01,      0.10025605E-03
 CTF,   6,      0.15499758E-01,      0.11548211E-04,      0.82217991    ,     -0.32544879E-02
 CTF,   5,     -0.23230838    ,      0.32429097E-03,      -11.731247    ,      0.49277582E-01
 CTF,   4,       1.7426778    ,      0.23153540E-02,       81.889815    ,     -0.37289939    
 CTF,   3,      -6.7121893    ,      0.48643510E-02,      -287.58037    ,       1.4471037    
 CTF,   2,       13.243360    ,      0.25453480E-02,       511.51122    ,      -2.8743141    
 CTF,   1,      -12.598424    ,      0.38740098E-03,      -437.96036    ,       2.7512751    
 CTF,   0,       4.5522761    ,      0.35904521E-04,       143.08528    
 Construction CTF,BASEMENT_WALL,  13,   1,  18,   0.033,      6.526    ,   0.900,   0.900,   0.700,   0.700,MediumRough
 Material CTF Summary,M10 200MM CONCRETE BLOCK BASEMENT WALL,  0.2032,         1.326,   1842.000,      912.000,  0.1532    
 CTF,  18,      0.60693599E-10,     -0.14490705E-19,      0.60692230E-10,     -0.34037809E-12
 CTF,  17,     -0.94426198E-08,     -0.39289649E-16,     -0.94426234E-08,      0.53658357E-10
 CTF,  16,      0.65333868E-06,     -0.31608240E-14,      0.65333867E-06,     -0.37681868E-08
 CTF,  15,     -0.26605839E-04,     -0.34047510E-14,     -0.26605839E-04,      0.15606399E-06
 CTF,  14,      0.71184979E-03,      0.18156138E-12,      0.71184979E-03,     -0.42563986E-05
 CTF,  13,     -0.13241509E-01,      0.18571047E-10,     -0.13241509E-01,      0.80914740E-04
 CTF,  12,      0.17694551    ,      0.81278799E-09,      0.17694551    ,     -0.11080833E-02
 CTF,  11,      -1.7329740    ,      0.17141394E-07,      -1.7329740    ,      0.11154416E-01
 CTF,  10,       12.594383    ,      0.18511034E-06,       12.594383    ,     -0.83573295E-01
 CTF,   9,      -68.414073    ,      0.10569393E-05,      -68.414073    ,      0.46943204    
 CTF,   8,       278.68445    ,      0.32250184E-05,       278.68445    ,      -1.9829559    
 CTF,   7,      -850.87140    ,      0.52129256E-05,      -850.87140    ,       6.2945051    
 CTF,   6,       1937.9258    ,      0.43302766E-05,       1937.9258    ,      -14.938491    
 CTF,   5,      -3258.7000    ,      0.17430907E-05,      -3258.7000    ,       26.223267    
 CTF,   4,       3971.3895    ,      0.30624877E-06,       3971.3895    ,      -33.409923    
 CTF,   3,      -3398.0344    ,      0.19705482E-07,      -3398.0344    ,       29.914981    
 CTF,   2,       1929.8839    ,      0.21645056E-09,       1929.8839    ,      -17.790549    
 CTF,   1,      -651.77208    ,      0.34307293E-10,      -651.77208    ,       6.2931813    
 CTF,   0,       98.882479    ,     -0.53158760E-11,       98.882479    
 Construction CTF,INT_WOOD_FLOOR,  14,   3,  11,   0.017,      1.749    ,   0.900,   0.900,   0.700,   0.700,MediumSmooth
 Material CTF Summary,AC02 ACOUSTIC CEILING,  0.0127,         0.057,    288.000,     1339.000,  0.2228    
 Material CTF Summary,G02 16MM PLYWOOD,  0.0159,         0.120,    544.000,     1210.000,  0.1325    
 Material CTF Summary,CP02 CARPET PAD,  0.0000,         0.000,      0.000,        0.000,  0.2165    
 CTF,  11,     -0.58179007E-12,     -0.68604808E-15,     -0.57316134E-13,      0.52777417E-14
 CTF,  10,      0.50996551E-09,      0.54718462E-13,      0.49841895E-10,     -0.52061407E-11
 CTF,   9,     -0.19486929E-06,      0.72824321E-10,     -0.18394320E-07,      0.22410157E-08
 CTF,   8,      0.34435211E-04,      0.23275898E-07,      0.31797244E-05,     -0.45337937E-06
 CTF,   7,     -0.27560576E-02,      0.21740820E-05,     -0.25924332E-03,      0.42426569E-04
 CTF,   6,      0.96056219E-01,      0.64713848E-04,      0.98243760E-02,     -0.17807228E-02
 CTF,   5,      -1.4861572    ,      0.64068535E-03,     -0.17347594    ,      0.33837944E-01
 CTF,   4,       10.559635    ,      0.21154850E-02,       1.4487384    ,     -0.29779785    
 CTF,   3,      -36.666719    ,      0.22103422E-02,      -5.9459267    ,       1.2733248    
 CTF,   2,       64.004193    ,      0.60898034E-03,       12.119669    ,      -2.6862587    
 CTF,   1,      -53.844995    ,      0.33707495E-04,      -11.705473    ,       2.6753880    
 CTF,   0,       17.346383    ,      0.18579948E-05,       4.2525744    
 Construction CTF,EXT_SOFFIT_FLOOR,  15,   1,   5,   0.017,      7.547    ,   0.900,   0.900,   0.700,   0.700,Smooth
 Material CTF Summary,G02 16MM PLYWOOD,  0.0159,         0.120,    544.000,     1210.000,  0.1325    
 CTF,   5,     -0.16131383E-03,      0.31768172E-05,     -0.16131383E-03,      0.13720333E-05
 CTF,   4,      0.46060671E-01,      0.23302341E-02,      0.46060671E-01,     -0.45116698E-03
 CTF,   3,      -2.0660182    ,      0.11361947    ,      -2.0660182    ,      0.25651889E-01
 CTF,   2,       18.793077    ,      0.70830598    ,       18.793077    ,     -0.31710841    
 CTF,   1,      -46.526558    ,      0.63071265    ,      -46.526558    ,       1.0929476    
 CTF,   0,       31.255176    ,      0.46603784E-01,       31.255176    
 Construction CTF,NONRES_ROOF,  16,   3,   7,   0.017,     0.1864    ,   0.900,   0.900,   0.700,   0.700,Rough
 Material CTF Summary,F13 BUILT-UP ROOFING,  0.0095,         0.160,   1120.000,     1460.000,  0.5938E-01
 Material CTF Summary,NONRES_ROOF_INSULATION,  0.0000,         0.000,      0.000,        0.000,   5.307    
 Material CTF Summary,F08 METAL SURFACE,  0.0008,        45.280,   7824.000,      500.000,  0.1767E-04
 CTF,   7,     -0.33411855E-15,      0.70192848E-11,     -0.15377002E-09,       0.0000000    
 CTF,   6,      0.26320027E-08,      0.88239742E-11,      0.18414364E-05,     -0.29492018E-11
 CTF,   5,     -0.26508174E-04,      0.24745144E-07,     -0.35979213E-02,      0.35300768E-07
 CTF,   4,      0.32931609E-01,      0.20166611E-04,      0.73291018    ,     -0.68943347E-04
 CTF,   3,      -3.6866766    ,      0.12674917E-02,      -16.786315    ,      0.13982042E-01
 CTF,   2,       43.459984    ,      0.88295901E-02,       78.423277    ,     -0.30779181    
 CTF,   1,      -101.51643    ,      0.78601508E-02,      -114.69567    ,       1.1946135    
 CTF,   0,       61.728713    ,      0.52123335E-03,       52.347890    
 Construction CTF,RES_ROOF,  17,   3,   7,   0.017,      11.19    ,   0.900,   0.900,   0.700,   0.700,Rough
 Material CTF Summary,F13 BUILT-UP ROOFING,  0.0095,         0.160,   1120.000,     1460.000,  0.5938E-01
 Material CTF Summary,RES_ROOF_INSULATION,  0.0000,         0.000,      0.000,        0.000,  0.2994E-01
 Material CTF Summary,F08 METAL SURFACE,  0.0008,        45.280,   7824.000,      500.000,  0.1767E-04
 CTF,   7,     -0.98436903E-15,     -0.19081749E-12,     -0.27822136E-10,       0.0000000    
 CTF,   6,      0.56512804E-09,      0.66359360E-10,      0.58323850E-06,     -0.63325584E-12
 CTF,   5,     -0.88571264E-05,      0.16035609E-05,     -0.15367135E-02,      0.11145730E-07
 CTF,   4,      0.14900013E-01,      0.16735363E-02,      0.40738252    ,     -0.29262210E-04
 CTF,   3,      -2.1569803    ,      0.12835572    ,      -11.862415    ,      0.76733895E-02
 CTF,   2,       31.971731    ,       1.0466463    ,       71.204537    ,     -0.21029344    
 CTF,   1,      -89.243354    ,       1.0593170    ,      -133.97315    ,      0.99584635    
 CTF,   0,       61.728721    ,      0.79014318E-01,       76.540189    
 Construction CTF,SEMIHEATED_ROOF,  18,   3,   7,   0.017,      11.19    ,   0.900,   0.900,   0.700,   0.700,Rough
 Material CTF Summary,F13 BUILT-UP ROOFING,  0.0095,         0.160,   1120.000,     1460.000,  0.5938E-01
 Material CTF Summary,SEMIHEATED_ROOF_INSULATION,  0.0000,         0.000,      0.000,        0.000,  0.2994E-01
 Material CTF Summary,F08 METAL SURFACE,  0.0008,        45.280,   7824.000,      500.000,  0.1767E-04
 CTF,   7,     -0.98436903E-15,     -0.19081749E-12,     -0.27822136E-10,       0.0000000    
 CTF,   6,      0.56512804E-09,      0.66359360E-10,      0.58323850E-06,     -0.63325584E-12
 CTF,   5,     -0.88571264E-05,      0.16035609E-05,     -0.15367135E-02,      0.11145730E-07
 CTF,   4,      0.14900013E-01,      0.16735363E-02,      0.40738252    ,     -0.29262210E-04
 CTF,   3,      -2.1569803    ,      0.12835572    ,      -11.862415    ,      0.76733895E-02
 CTF,   2,       31.971731    ,       1.0466463    ,       71.204537    ,     -0.21029344    
 CTF,   1,      -89.243354    ,       1.0593170    ,      -133.97315    ,      0.99584635    
 CTF,   0,       61.728721    ,      0.79014318E-01,       76.540189    
 Construction CTF,NONRES_EXT_WALL,  19,   3,  16,   0.050,     0.5534    ,   0.900,   0.900,   0.700,   0.700,MediumRough
 Material CTF Summary,200MM NORMALWEIGHT CONCRETE WALL,  0.2032,         2.310,   2322.000,      832.000,  0.8797E-01
 Material CTF Summary,NONRES_EXTERIOR_WALL_INSULATION,  0.0000,         0.000,      0.000,        0.000,   1.640    
 Material CTF Summary,G01 13MM GYPSUM BOARD,  0.0127,         0.160,    800.000,     1090.000,  0.7937E-01
 CTF,  16,      0.96785900E-12,      0.21253805E-20,      0.20498272E-11,     -0.26349091E-14
 CTF,  15,     -0.19743401E-09,     -0.40964053E-16,     -0.32202404E-09,      0.55690000E-12
 CTF,  14,      0.24607526E-07,      0.37529843E-14,      0.32260110E-07,     -0.71447880E-10
 CTF,  13,     -0.19679431E-05,      0.13912268E-12,     -0.20991894E-05,      0.59128372E-08
 CTF,  12,      0.10298815E-03,      0.13774067E-10,      0.89179019E-04,     -0.32221753E-06
 CTF,  11,     -0.35468300E-02,      0.63596642E-09,     -0.24788514E-02,      0.11642262E-04
 CTF,  10,      0.80199538E-01,      0.14448824E-07,      0.45308633E-01,     -0.27860962E-03
 CTF,   9,      -1.1857156    ,      0.16464054E-06,     -0.54992357    ,      0.44002333E-02
 CTF,   8,       11.458697    ,      0.94548833E-06,       4.4880120    ,     -0.45816092E-01
 CTF,   7,      -72.800393    ,      0.27085345E-05,      -24.908649    ,      0.31563499    
 CTF,   6,       306.87639    ,      0.37576697E-05,       94.660890    ,      -1.4478679    
 CTF,   5,      -864.35254    ,      0.23865881E-05,      -246.39788    ,       4.4420587    
 CTF,   4,       1624.6661    ,      0.62279758E-06,       435.44683    ,      -9.0863968    
 CTF,   3,      -2004.3318    ,      0.58816406E-07,      -510.70688    ,       12.174503    
 CTF,   2,       1553.7590    ,      0.23841549E-08,       378.92445    ,      -10.222873    
 CTF,   1,      -684.88320    ,      0.11650742E-08,      -160.51477    ,       4.8666049    
 CTF,   0,       130.71668    ,     -0.23761466E-09,       29.515008    
 Construction CTF,RES_EXT_WALL,  20,   3,  18,   0.033,      5.069    ,   0.900,   0.900,   0.700,   0.700,MediumRough
 Material CTF Summary,200MM NORMALWEIGHT CONCRETE WALL,  0.2032,         2.310,   2322.000,      832.000,  0.8797E-01
 Material CTF Summary,RES_EXTERIOR_WALL_INSULATION,  0.0000,         0.000,      0.000,        0.000,  0.2994E-01
 Material CTF Summary,G01 13MM GYPSUM BOARD,  0.0127,         0.160,    800.000,     1090.000,  0.7937E-01
 CTF,  18,      0.40462484E-11,      0.98448031E-21,      0.95463428E-11,     -0.14979096E-13
 CTF,  17,     -0.76156142E-09,     -0.48071312E-18,     -0.11727577E-08,      0.28445299E-11
 CTF,  16,      0.68004883E-07,      0.41934760E-15,      0.80465761E-07,     -0.25750851E-09
 CTF,  15,     -0.36122413E-05,      0.95883984E-14,     -0.34925893E-05,      0.13899020E-07
 CTF,  14,      0.12583205E-03,      0.40644721E-12,      0.10237184E-03,     -0.49327855E-06
 CTF,  13,     -0.30237933E-02,      0.31678671E-10,     -0.21052646E-02,      0.12112749E-04
 CTF,  12,      0.51576655E-01,      0.11494274E-08,      0.31110248E-01,     -0.21183452E-03
 CTF,  11,     -0.63491933    ,      0.21263560E-07,     -0.33552248    ,      0.26836444E-02
 CTF,  10,       5.6962451    ,      0.20776099E-06,       2.6680062    ,     -0.24874822E-01
 CTF,   9,      -37.454447    ,      0.10906578E-05,      -15.740845    ,      0.16964758    
 CTF,   8,       180.99497    ,      0.30763650E-05,       69.105824    ,     -0.85348775    
 CTF,   7,      -642.86741    ,      0.45870531E-05,      -225.64861    ,       3.1664251    
 CTF,   6,       1672.6576    ,      0.34776406E-05,       545.52875    ,      -8.6290466    
 CTF,   5,      -3160.9420    ,      0.12595887E-05,      -966.85239    ,       17.116315    
 CTF,   4,       4267.0907    ,      0.18664901E-06,       1233.8553    ,      -24.290481    
 CTF,   3,      -3993.3173    ,      0.15303920E-07,      -1099.0583    ,       23.921042    
 CTF,   2,       2453.3466    ,     -0.32461768E-08,       646.51278    ,      -15.472486    
 CTF,   1,      -887.70397    ,      0.12774376E-08,      -225.15975    ,       5.8944607    
 CTF,   0,       143.08528    ,     -0.21575246E-09,       35.095706    
 Construction CTF,SEMIHEATED_EXT_WALL,  21,   3,  18,   0.033,      5.069    ,   0.900,   0.900,   0.700,   0.700,MediumRough
 Material CTF Summary,200MM NORMALWEIGHT CONCRETE WALL,  0.2032,         2.310,   2322.000,      832.000,  0.8797E-01
 Material CTF Summary,SEMIHEATED_EXTERIOR_WALL_INSULATION,  0.0000,         0.000,      0.000,        0.000,  0.2994E-01
 Material CTF Summary,G01 13MM GYPSUM BOARD,  0.0127,         0.160,    800.000,     1090.000,  0.7937E-01
 CTF,  18,      0.40462484E-11,      0.98448031E-21,      0.95463428E-11,     -0.14979096E-13
 CTF,  17,     -0.76156142E-09,     -0.48071312E-18,     -0.11727577E-08,      0.28445299E-11
 CTF,  16,      0.68004883E-07,      0.41934760E-15,      0.80465761E-07,     -0.25750851E-09
 CTF,  15,     -0.36122413E-05,      0.95883984E-14,     -0.34925893E-05,      0.13899020E-07
 CTF,  14,      0.12583205E-03,      0.40644721E-12,      0.10237184E-03,     -0.49327855E-06
 CTF,  13,     -0.30237933E-02,      0.31678671E-10,     -0.21052646E-02,      0.12112749E-04
 CTF,  12,      0.51576655E-01,      0.11494274E-08,      0.31110248E-01,     -0.21183452E-03
 CTF,  11,     -0.63491933    ,      0.21263560E-07,     -0.33552248    ,      0.26836444E-02
 CTF,  10,       5.6962451    ,      0.20776099E-06,       2.6680062    ,     -0.24874822E-01
 CTF,   9,      -37.454447    ,      0.10906578E-05,      -15.740845    ,      0.16964758    
 CTF,   8,       180.99497    ,      0.30763650E-05,       69.105824    ,     -0.85348775    
 CTF,   7,      -642.86741    ,      0.45870531E-05,      -225.64861    ,       3.1664251    
 CTF,   6,       1672.6576    ,      0.34776406E-05,       545.52875    ,      -8.6290466    
 CTF,   5,      -3160.9420    ,      0.12595887E-05,      -966.85239    ,       17.116315    
 CTF,   4,       4267.0907    ,      0.18664901E-06,       1233.8553    ,      -24.290481    
 CTF,   3,      -3993.3173    ,      0.15303920E-07,      -1099.0583    ,       23.921042    
 CTF,   2,       2453.3466    ,     -0.32461768E-08,       646.51278    ,      -15.472486    
 CTF,   1,      -887.70397    ,      0.12774376E-08,      -225.15975    ,       5.8944607    
 CTF,   0,       143.08528    ,     -0.21575246E-09,       35.095706    
 Construction CTF,NONRES_FLOOR,  22,   3,  10,   0.017,      3.444    ,   0.900,   0.900,   0.700,   0.700,MediumSmooth
 Material CTF Summary,NONRES_FLOOR_INSULATION,  0.0000,         0.000,      0.000,        0.000,  0.2994E-01
 Material CTF Summary,100MM NORMALWEIGHT CONCRETE FLOOR,  0.1016,         2.310,   2322.000,      832.000,  0.4398E-01
 Material CTF Summary,CP02 CARPET PAD,  0.0000,         0.000,      0.000,        0.000,  0.2165    
 CTF,  10,      0.13272751E-08,     -0.13712596E-15,      0.95971884E-08,     -0.34067311E-16
 CTF,   9,     -0.10400662E-01,      0.35973454E-06,     -0.12995372E-02,      0.27673267E-03
 CTF,   8,      0.28053191    ,     -0.99115113E-05,      0.35722531E-01,     -0.76295727E-02
 CTF,   7,      -3.2069182    ,      0.11580244E-03,     -0.41609284    ,      0.89126788E-01
 CTF,   6,       20.322447    ,     -0.74641270E-03,       2.6857755    ,     -0.57695181    
 CTF,   5,      -78.464409    ,      0.29587029E-02,      -10.557598    ,       2.2744490    
 CTF,   4,       191.12548    ,     -0.72879004E-02,       26.168716    ,      -5.6535238    
 CTF,   3,      -293.70112    ,      0.11456980E-01,      -40.896647    ,       8.8599301    
 CTF,   2,       274.96603    ,     -0.10884342E-01,       38.914430    ,      -8.4534906    
 CTF,   1,      -142.69313    ,      0.57378333E-02,      -20.512071    ,       4.4677954    
 CTF,   0,       31.381555    ,     -0.12797091E-02,       4.5791263    
 Construction CTF,RES_FLOOR,  23,   3,  10,   0.017,      3.444    ,   0.900,   0.900,   0.700,   0.700,MediumSmooth
 Material CTF Summary,RES_FLOOR_INSULATION,  0.0000,         0.000,      0.000,        0.000,  0.2994E-01
 Material CTF Summary,100MM NORMALWEIGHT CONCRETE FLOOR,  0.1016,         2.310,   2322.000,      832.000,  0.4398E-01
 Material CTF Summary,CP02 CARPET PAD,  0.0000,         0.000,      0.000,        0.000,  0.2165    
 CTF,  10,      0.13272751E-08,     -0.13712596E-15,      0.95971884E-08,     -0.34067311E-16
 CTF,   9,     -0.10400662E-01,      0.35973454E-06,     -0.12995372E-02,      0.27673267E-03
 CTF,   8,      0.28053191    ,     -0.99115113E-05,      0.35722531E-01,     -0.76295727E-02
 CTF,   7,      -3.2069182    ,      0.11580244E-03,     -0.41609284    ,      0.89126788E-01
 CTF,   6,       20.322447    ,     -0.74641270E-03,       2.6857755    ,     -0.57695181    
 CTF,   5,      -78.464409    ,      0.29587029E-02,      -10.557598    ,       2.2744490    
 CTF,   4,       191.12548    ,     -0.72879004E-02,       26.168716    ,      -5.6535238    
 CTF,   3,      -293.70112    ,      0.11456980E-01,      -40.896647    ,       8.8599301    
 CTF,   2,       274.96603    ,     -0.10884342E-01,       38.914430    ,      -8.4534906    
 CTF,   1,      -142.69313    ,      0.57378333E-02,      -20.512071    ,       4.4677954    
 CTF,   0,       31.381555    ,     -0.12797091E-02,       4.5791263    
 Construction CTF,SEMIHEATED_FLOOR,  24,   3,  10,   0.017,      3.444    ,   0.900,   0.900,   0.700,   0.700,MediumSmooth
 Material CTF Summary,SEMIHEATED_FLOOR_INSULATION,  0.0000,         0.000,      0.000,        0.000,  0.2994E-01
 Material CTF Summary,100MM NORMALWEIGHT CONCRETE FLOOR,  0.1016,         2.310,   2322.000,      832.000,  0.4398E-01
 Material CTF Summary,CP02 CARPET PAD,  0.0000,         0.000,      0.000,        0.000,  0.2165    
 CTF,  10,      0.13272751E-08,     -0.13712596E-15,      0.95971884E-08,     -0.34067311E-16
 CTF,   9,     -0.10400662E-01,      0.35973454E-06,     -0.12995372E-02,      0.27673267E-03
 CTF,   8,      0.28053191    ,     -0.99115113E-05,      0.35722531E-01,     -0.76295727E-02
 CTF,   7,      -3.2069182    ,      0.11580244E-03,     -0.41609284    ,      0.89126788E-01
 CTF,   6,       20.322447    ,     -0.74641270E-03,       2.6857755    ,     -0.57695181    
 CTF,   5,      -78.464409    ,      0.29587029E-02,      -10.557598    ,       2.2744490    
 CTF,   4,       191.12548    ,     -0.72879004E-02,       26.168716    ,      -5.6535238    
 CTF,   3,      -293.70112    ,      0.11456980E-01,      -40.896647    ,       8.8599301    
 CTF,   2,       274.96603    ,     -0.10884342E-01,       38.914430    ,      -8.4534906    
 CTF,   1,      -142.69313    ,      0.57378333E-02,      -20.512071    ,       4.4677954    
 CTF,   0,       31.381555    ,     -0.12797091E-02,       4.5791263    
 Construction CTF,NONRES_FLOOR_CEILING,  25,   3,  10,   0.017,      3.444    ,   0.900,   0.900,   0.700,   0.700,VeryRough
 Material CTF Summary,CP02 CARPET PAD,  0.0000,         0.000,      0.000,        0.000,  0.2165    
 Material CTF Summary,100MM NORMALWEIGHT CONCRETE FLOOR,  0.1016,         2.310,   2322.000,      832.000,  0.4398E-01
 Material CTF Summary,NONRES_FLOOR_INSULATION,  0.0000,         0.000,      0.000,        0.000,  0.2994E-01
 CTF,  10,      0.95971884E-08,     -0.13712596E-15,      0.13272751E-08,     -0.34067311E-16
 CTF,   9,     -0.12995372E-02,      0.35973454E-06,     -0.10400662E-01,      0.27673267E-03
 CTF,   8,      0.35722531E-01,     -0.99115113E-05,      0.28053191    ,     -0.76295727E-02
 CTF,   7,     -0.41609284    ,      0.11580244E-03,      -3.2069182    ,      0.89126788E-01
 CTF,   6,       2.6857755    ,     -0.74641270E-03,       20.322447    ,     -0.57695181    
 CTF,   5,      -10.557598    ,      0.29587029E-02,      -78.464409    ,       2.2744490    
 CTF,   4,       26.168716    ,     -0.72879004E-02,       191.12548    ,      -5.6535238    
 CTF,   3,      -40.896647    ,      0.11456980E-01,      -293.70112    ,       8.8599301    
 CTF,   2,       38.914430    ,     -0.10884342E-01,       274.96603    ,      -8.4534906    
 CTF,   1,      -20.512071    ,      0.57378333E-02,      -142.69313    ,       4.4677954    
 CTF,   0,       4.5791263    ,     -0.12797091E-02,       31.381555    
 Construction CTF,RES_FLOOR_CEILING,  26,   3,  10,   0.017,      3.444    ,   0.900,   0.900,   0.700,   0.700,VeryRough
 Material CTF Summary,CP02 CARPET PAD,  0.0000,         0.000,      0.000,        0.000,  0.2165    
 Material CTF Summary,100MM NORMALWEIGHT CONCRETE FLOOR,  0.1016,         2.310,   2322.000,      832.000,  0.4398E-01
 Material CTF Summary,RES_FLOOR_INSULATION,  0.0000,         0.000,      0.000,        0.000,  0.2994E-01
 CTF,  10,      0.95971884E-08,     -0.13712596E-15,      0.13272751E-08,     -0.34067311E-16
 CTF,   9,     -0.12995372E-02,      0.35973454E-06,     -0.10400662E-01,      0.27673267E-03
 CTF,   8,      0.35722531E-01,     -0.99115113E-05,      0.28053191    ,     -0.76295727E-02
 CTF,   7,     -0.41609284    ,      0.11580244E-03,      -3.2069182    ,      0.89126788E-01
 CTF,   6,       2.6857755    ,     -0.74641270E-03,       20.322447    ,     -0.57695181    
 CTF,   5,      -10.557598    ,      0.29587029E-02,      -78.464409    ,       2.2744490    
 CTF,   4,       26.168716    ,     -0.72879004E-02,       191.12548    ,      -5.6535238    
 CTF,   3,      -40.896647    ,      0.11456980E-01,      -293.70112    ,       8.8599301    
 CTF,   2,       38.914430    ,     -0.10884342E-01,       274.96603    ,      -8.4534906    
 CTF,   1,      -20.512071    ,      0.57378333E-02,      -142.69313    ,       4.4677954    
 CTF,   0,       4.5791263    ,     -0.12797091E-02,       31.381555    
 Construction CTF,SEMIHEATED_FLOOR_CEILING,  27,   3,  10,   0.017,      3.444    ,   0.900,   0.900,   0.700,   0.700,VeryRough
 Material CTF Summary,CP02 CARPET PAD,  0.0000,         0.000,      0.000,        0.000,  0.2165    
 Material CTF Summary,100MM NORMALWEIGHT CONCRETE FLOOR,  0.1016,         2.310,   2322.000,      832.000,  0.4398E-01
 Material CTF Summary,SEMIHEATED_FLOOR_INSULATION,  0.0000,         0.000,      0.000,        0.000,  0.2994E-01
 CTF,  10,      0.95971884E-08,     -0.13712596E-15,      0.13272751E-08,     -0.34067311E-16
 CTF,   9,     -0.12995372E-02,      0.35973454E-06,     -0.10400662E-01,      0.27673267E-03
 CTF,   8,      0.35722531E-01,     -0.99115113E-05,      0.28053191    ,     -0.76295727E-02
 CTF,   7,     -0.41609284    ,      0.11580244E-03,      -3.2069182    ,      0.89126788E-01
 CTF,   6,       2.6857755    ,     -0.74641270E-03,       20.322447    ,     -0.57695181    
 CTF,   5,      -10.557598    ,      0.29587029E-02,      -78.464409    ,       2.2744490    
 CTF,   4,       26.168716    ,     -0.72879004E-02,       191.12548    ,      -5.6535238    
 CTF,   3,      -40.896647    ,      0.11456980E-01,      -293.70112    ,       8.8599301    
 CTF,   2,       38.914430    ,     -0.10884342E-01,       274.96603    ,      -8.4534906    
 CTF,   1,      -20.512071    ,      0.57378333E-02,      -142.69313    ,       4.4677954    
 CTF,   0,       4.5791263    ,     -0.12797091E-02,       31.381555    
! <WindowConstruction>,Construction Name,Index,#Layers,Roughness,Conductance {W/m2-K},SHGC,Solar Transmittance at Normal Incidence,Visible Transmittance at Normal Incidence
! <WindowMaterial:Glazing>, Material Name, Optical Data Type, Spectral Data Set Name, Thickness {m}, Solar Transmittance,Front Solar Reflectance, Back Solar Reflectance, Visible Transmittance, Front Visible Reflectance,Back Visible Reflectance,Infrared Transmittance, Front Thermal Emissivity, Back Thermal Emissivity,Conductivity {W/m-K},Dirt Factor,Solar Diffusing
! <WindowMaterial:Gas>,Material Name,GasType,Thickness {m}
 WindowConstruction,WINDOW_U_1.22_SHGC_0.61,28,1,VerySmooth,5.778,0.623,0.487,0.749
 WindowMaterial:Glazing,GREEN 6MM,SpectralAverage,,6.00000E-003,0.48700,5.60000E-002,5.60000E-002,0.74900,7.00000E-002,7.00000E-002,0.00000,0.84000,0.84000,0.90000,1.00000,No
 WindowConstruction,WINDOW_U_1.22_SHGC_0.39,29,1,VerySmooth,5.067,0.400,0.241,0.301
 WindowMaterial:Glazing,REF B CLEAR HI 6MM,SpectralAverage,,6.00000E-003,0.24000,0.16000,0.32000,0.30000,0.16000,0.29000,0.00000,0.84000,0.60000,0.90000,1.00000,No
 WindowConstruction,WINDOW_U_1.22_SHGC_0.34,30,1,VerySmooth,4.913,0.365,0.201,0.221
 WindowMaterial:Glazing,REF C CLEAR HI 6MM,SpectralAverage,,6.00000E-003,0.20000,0.16000,0.39000,0.22000,0.17000,0.35000,0.00000,0.84000,0.55000,0.90000,1.00000,No
 WindowConstruction,WINDOW_U_1.22_SHGC_0.25,31,1,VerySmooth,5.778,0.306,9.905E-002,0.155
 WindowMaterial:Glazing,ECREF-1 COLORED 6MM,SpectralAverage,,6.00000E-003,9.90000E-002,0.21900,0.21900,0.15500,7.30000E-002,7.30000E-002,0.00000,0.84000,0.84000,0.90000,1.00000,No
 WindowConstruction,WINDOW_U_0.72_SHGC_0.25,32,1,VerySmooth,4.600,0.293,0.100,0.130
 WindowMaterial:Glazing,REF B TINT MID 6MM,SpectralAverage,,6.00000E-003,0.10000,0.11000,0.41000,0.13000,0.10000,0.32000,0.00000,0.84000,0.45000,0.90000,1.00000,No
 WindowConstruction,WINDOW_U_0.62_SHGC_0.39,33,3,VerySmooth,3.045,0.428,0.343,0.308
 WindowMaterial:Glazing,REF D CLEAR 6MM,SpectralAverage,,6.00000E-003,0.42900,0.30800,0.37900,0.33400,0.45300,0.50500,0.00000,0.84000,0.82000,0.90000,1.00000,No
 WindowMaterial:Gas,AIR 6MM,Air,6.300E-003
 WindowMaterial:Glazing,CLEAR 6MM,SpectralAverage,,6.00000E-003,0.77500,7.10000E-002,7.10000E-002,0.88100,8.00000E-002,8.00000E-002,0.00000,0.84000,0.84000,0.90000,1.00000,No
 WindowConstruction,WINDOW_U_0.57_SHGC_0.39,34,3,VerySmooth,3.045,0.428,0.343,0.308
 WindowMaterial:Glazing,REF D CLEAR 6MM,SpectralAverage,,6.00000E-003,0.42900,0.30800,0.37900,0.33400,0.45300,0.50500,0.00000,0.84000,0.82000,0.90000,1.00000,No
 WindowMaterial:Gas,AIR 6MM,Air,6.300E-003
 WindowMaterial:Glazing,CLEAR 6MM,SpectralAverage,,6.00000E-003,0.77500,7.10000E-002,7.10000E-002,0.88100,8.00000E-002,8.00000E-002,0.00000,0.84000,0.84000,0.90000,1.00000,No
 WindowConstruction,WINDOW_U_0.65_SHGC_0.25,35,3,VerySmooth,2.848,0.287,0.160,0.200
 WindowMaterial:Glazing,REF C CLEAR HI 6MM,SpectralAverage,,6.00000E-003,0.20000,0.16000,0.39000,0.22000,0.17000,0.35000,0.00000,0.84000,0.55000,0.90000,1.00000,No
 WindowMaterial:Gas,AIR 6MM,Air,6.300E-003
 WindowMaterial:Glazing,CLEAR 6MM,SpectralAverage,,6.00000E-003,0.77500,7.10000E-002,7.10000E-002,0.88100,8.00000E-002,8.00000E-002,0.00000,0.84000,0.84000,0.90000,1.00000,No
 WindowConstruction,WINDOW_U_0.62_SHGC_0.25,36,3,VerySmooth,2.848,0.287,0.160,0.200
 WindowMaterial:Glazing,REF C CLEAR HI 6MM,SpectralAverage,,6.00000E-003,0.20000,0.16000,0.39000,0.22000,0.17000,0.35000,0.00000,0.84000,0.55000,0.90000,1.00000,No
 WindowMaterial:Gas,AIR 6MM,Air,6.300E-003
 WindowMaterial:Glazing,CLEAR 6MM,SpectralAverage,,6.00000E-003,0.77500,7.10000E-002,7.10000E-002,0.88100,8.00000E-002,8.00000E-002,0.00000,0.84000,0.84000,0.90000,1.00000,No
 WindowConstruction,WINDOW_U_0.57_SHGC_0.25,37,3,VerySmooth,2.848,0.287,0.160,0.200
 WindowMaterial:Glazing,REF C CLEAR HI 6MM,SpectralAverage,,6.00000E-003,0.20000,0.16000,0.39000,0.22000,0.17000,0.35000,0.00000,0.84000,0.55000,0.90000,1.00000,No
 WindowMaterial:Gas,AIR 6MM,Air,6.300E-003
 WindowMaterial:Glazing,CLEAR 6MM,SpectralAverage,,6.00000E-003,0.77500,7.10000E-002,7.10000E-002,0.88100,8.00000E-002,8.00000E-002,0.00000,0.84000,0.84000,0.90000,1.00000,No
 WindowConstruction,WINDOW_U_0.62_SHGC_0.49,38,3,VerySmooth,3.058,0.502,0.373,0.505
 WindowMaterial:Glazing,BLUE 6MM,SpectralAverage,,6.00000E-003,0.48000,5.00000E-002,5.00000E-002,0.57000,6.00000E-002,6.00000E-002,0.00000,0.84000,0.84000,0.90000,1.00000,No
 WindowMaterial:Gas,AIR 6MM,Air,6.300E-003
 WindowMaterial:Glazing,CLEAR 6MM,SpectralAverage,,6.00000E-003,0.77500,7.10000E-002,7.10000E-002,0.88100,8.00000E-002,8.00000E-002,0.00000,0.84000,0.84000,0.90000,1.00000,No
 WindowConstruction,WINDOW_U_0.57_SHGC_0.49,39,3,VerySmooth,3.058,0.502,0.373,0.505
 WindowMaterial:Glazing,BLUE 6MM,SpectralAverage,,6.00000E-003,0.48000,5.00000E-002,5.00000E-002,0.57000,6.00000E-002,6.00000E-002,0.00000,0.84000,0.84000,0.90000,1.00000,No
 WindowMaterial:Gas,AIR 6MM,Air,6.300E-003
 WindowMaterial:Glazing,CLEAR 6MM,SpectralAverage,,6.00000E-003,0.77500,7.10000E-002,7.10000E-002,0.88100,8.00000E-002,8.00000E-002,0.00000,0.84000,0.84000,0.90000,1.00000,No
 WindowConstruction,WINDOW_U_0.52_SHGC_0.40,40,3,VerySmooth,2.653,0.426,0.343,0.308
 WindowMaterial:Glazing,REF D CLEAR 6MM,SpectralAverage,,6.00000E-003,0.42900,0.30800,0.37900,0.33400,0.45300,0.50500,0.00000,0.84000,0.82000,0.90000,1.00000,No
 WindowMaterial:Gas,AIR 13MM,Air,1.270E-002
 WindowMaterial:Glazing,CLEAR 6MM,SpectralAverage,,6.00000E-003,0.77500,7.10000E-002,7.10000E-002,0.88100,8.00000E-002,8.00000E-002,0.00000,0.84000,0.84000,0.90000,1.00000,No
 WindowConstruction,WINDOW_U_0.48_SHGC_0.40,41,3,VerySmooth,2.653,0.426,0.343,0.308
 WindowMaterial:Glazing,REF D CLEAR 6MM,SpectralAverage,,6.00000E-003,0.42900,0.30800,0.37900,0.33400,0.45300,0.50500,0.00000,0.84000,0.82000,0.90000,1.00000,No
 WindowMaterial:Gas,AIR 13MM,Air,1.270E-002
 WindowMaterial:Glazing,CLEAR 6MM,SpectralAverage,,6.00000E-003,0.77500,7.10000E-002,7.10000E-002,0.88100,8.00000E-002,8.00000E-002,0.00000,0.84000,0.84000,0.90000,1.00000,No
 WindowConstruction,WINDOW_U_0.42_SHGC_0.45,42,3,VerySmooth,2.493,0.426,0.343,0.308
 WindowMaterial:Glazing,REF D CLEAR 6MM,SpectralAverage,,6.00000E-003,0.42900,0.30800,0.37900,0.33400,0.45300,0.50500,0.00000,0.84000,0.82000,0.90000,1.00000,No
 WindowMaterial:Gas,ARGON 13MM,Argon,1.270E-002
 WindowMaterial:Glazing,CLEAR 6MM,SpectralAverage,,6.00000E-003,0.77500,7.10000E-002,7.10000E-002,0.88100,8.00000E-002,8.00000E-002,0.00000,0.84000,0.84000,0.90000,1.00000,No
 WindowConstruction,WINDOW_U_0.46_SHGC_0.45,43,3,VerySmooth,2.670,0.479,0.354,0.381
 WindowMaterial:Glazing,GREY 6MM,SpectralAverage,,6.00000E-003,0.45500,5.30000E-002,5.30000E-002,0.43100,5.20000E-002,5.20000E-002,0.00000,0.84000,0.84000,0.90000,1.00000,No
 WindowMaterial:Gas,AIR 13MM,Air,1.270E-002
 WindowMaterial:Glazing,CLEAR 6MM,SpectralAverage,,6.00000E-003,0.77500,7.10000E-002,7.10000E-002,0.88100,8.00000E-002,8.00000E-002,0.00000,0.84000,0.84000,0.90000,1.00000,No
 WindowConstruction,WINDOW_U_0.42_SHGC_0.40,44,3,VerySmooth,2.371,0.397,0.284,0.444
 WindowMaterial:Glazing,LOE TINT 6MM,SpectralAverage,,6.00000E-003,0.36000,9.30000E-002,0.20000,0.50000,3.50000E-002,5.40000E-002,0.00000,0.84000,0.10000,0.90000,1.00000,No
 WindowMaterial:Gas,AIR 6MM,Air,6.300E-003
 WindowMaterial:Glazing,CLEAR 6MM,SpectralAverage,,6.00000E-003,0.77500,7.10000E-002,7.10000E-002,0.88100,8.00000E-002,8.00000E-002,0.00000,0.84000,0.84000,0.90000,1.00000,No
 WindowConstruction,WINDOW_U_0.43_SHGC_0.26,45,3,VerySmooth,2.447,0.305,0.191,0.271
 WindowMaterial:Glazing,REF B CLEAR HI 6MM,SpectralAverage,,6.00000E-003,0.24000,0.16000,0.32000,0.30000,0.16000,0.29000,0.00000,0.84000,0.60000,0.90000,1.00000,No
 WindowMaterial:Gas,AIR 13MM,Air,1.270E-002
 WindowMaterial:Glazing,CLEAR 6MM,SpectralAverage,,6.00000E-003,0.77500,7.10000E-002,7.10000E-002,0.88100,8.00000E-002,8.00000E-002,0.00000,0.84000,0.84000,0.90000,1.00000,No
 WindowConstruction,WINDOW_U_0.44_SHGC_0.26,46,3,VerySmooth,2.447,0.305,0.191,0.271
 WindowMaterial:Glazing,REF B CLEAR HI 6MM,SpectralAverage,,6.00000E-003,0.24000,0.16000,0.32000,0.30000,0.16000,0.29000,0.00000,0.84000,0.60000,0.90000,1.00000,No
 WindowMaterial:Gas,AIR 13MM,Air,1.270E-002
 WindowMaterial:Glazing,CLEAR 6MM,SpectralAverage,,6.00000E-003,0.77500,7.10000E-002,7.10000E-002,0.88100,8.00000E-002,8.00000E-002,0.00000,0.84000,0.84000,0.90000,1.00000,No
 WindowConstruction,WINDOW_U_0.42_SHGC_0.35,47,3,VerySmooth,2.371,0.397,0.284,0.444
 WindowMaterial:Glazing,LOE TINT 6MM,SpectralAverage,,6.00000E-003,0.36000,9.30000E-002,0.20000,0.50000,3.50000E-002,5.40000E-002,0.00000,0.84000,0.10000,0.90000,1.00000,No
 WindowMaterial:Gas,AIR 6MM,Air,6.300E-003
 WindowMaterial:Glazing,CLEAR 6MM,SpectralAverage,,6.00000E-003,0.77500,7.10000E-002,7.10000E-002,0.88100,8.00000E-002,8.00000E-002,0.00000,0.84000,0.84000,0.90000,1.00000,No
 WindowConstruction,WINDOW_U_0.33_SHGC_0.40,48,3,VerySmooth,1.761,0.380,0.284,0.444
 WindowMaterial:Glazing,LOE TINT 6MM,SpectralAverage,,6.00000E-003,0.36000,9.30000E-002,0.20000,0.50000,3.50000E-002,5.40000E-002,0.00000,0.84000,0.10000,0.90000,1.00000,No
 WindowMaterial:Gas,AIR 13MM,Air,1.270E-002
 WindowMaterial:Glazing,CLEAR 6MM,SpectralAverage,,6.00000E-003,0.77500,7.10000E-002,7.10000E-002,0.88100,8.00000E-002,8.00000E-002,0.00000,0.84000,0.84000,0.90000,1.00000,No
 WindowConstruction,WINDOW_U_0.34_SHGC_0.40,49,3,VerySmooth,1.761,0.380,0.284,0.444
 WindowMaterial:Glazing,LOE TINT 6MM,SpectralAverage,,6.00000E-003,0.36000,9.30000E-002,0.20000,0.50000,3.50000E-002,5.40000E-002,0.00000,0.84000,0.10000,0.90000,1.00000,No
 WindowMaterial:Gas,AIR 13MM,Air,1.270E-002
 WindowMaterial:Glazing,CLEAR 6MM,SpectralAverage,,6.00000E-003,0.77500,7.10000E-002,7.10000E-002,0.88100,8.00000E-002,8.00000E-002,0.00000,0.84000,0.84000,0.90000,1.00000,No
 WindowConstruction,WINDOW_U_0.35_SHGC_0.35,50,3,VerySmooth,1.761,0.380,0.284,0.444
 WindowMaterial:Glazing,LOE TINT 6MM,SpectralAverage,,6.00000E-003,0.36000,9.30000E-002,0.20000,0.50000,3.50000E-002,5.40000E-002,0.00000,0.84000,0.10000,0.90000,1.00000,No
 WindowMaterial:Gas,AIR 13MM,Air,1.270E-002
 WindowMaterial:Glazing,CLEAR 6MM,SpectralAverage,,6.00000E-003,0.77500,7.10000E-002,7.10000E-002,0.88100,8.00000E-002,8.00000E-002,0.00000,0.84000,0.84000,0.90000,1.00000,No
 WindowConstruction,WINDOW_U_0.55_SHGC_0.31,51,3,VerySmooth,3.045,0.368,0.239,0.229
 WindowMaterial:Glazing,REF D TINT 6MM,SpectralAverage,,6.00000E-003,0.30000,0.14000,0.36000,0.25000,0.18000,0.45000,0.00000,0.84000,0.82000,0.90000,1.00000,No
 WindowMaterial:Gas,AIR 6MM,Air,6.300E-003
 WindowMaterial:Glazing,CLEAR 6MM,SpectralAverage,,6.00000E-003,0.77500,7.10000E-002,7.10000E-002,0.88100,8.00000E-002,8.00000E-002,0.00000,0.84000,0.84000,0.90000,1.00000,No
 WindowConstruction,WINDOW_U_0.43_SHGC_0.29,52,3,VerySmooth,2.272,0.313,0.208,0.408
 WindowMaterial:Glazing,LOE SPEC SEL TINT 6MM,SpectralAverage,,6.00000E-003,0.26000,0.14000,0.41000,0.46000,6.00000E-002,4.00000E-002,0.00000,0.84000,3.00000E-002,0.90000,1.00000,No
 WindowMaterial:Gas,AIR 6MM,Air,6.300E-003
 WindowMaterial:Glazing,CLEAR 6MM,SpectralAverage,,6.00000E-003,0.77500,7.10000E-002,7.10000E-002,0.88100,8.00000E-002,8.00000E-002,0.00000,0.84000,0.84000,0.90000,1.00000,No
 WindowConstruction,WINDOW_U_0.34_SHGC_0.45,53,3,VerySmooth,1.932,0.634,0.531,0.721
 WindowMaterial:Glazing,PYR B CLEAR 6MM,SpectralAverage,,6.00000E-003,0.68000,9.00000E-002,0.10000,0.81000,0.11000,0.12000,0.00000,0.84000,0.20000,0.90000,1.00000,No
 WindowMaterial:Gas,AIR 13MM,Air,1.270E-002
 WindowMaterial:Glazing,CLEAR 6MM,SpectralAverage,,6.00000E-003,0.77500,7.10000E-002,7.10000E-002,0.88100,8.00000E-002,8.00000E-002,0.00000,0.84000,0.84000,0.90000,1.00000,No
 WindowConstruction,WINDOW_U_0.56_SHGC_0.35,54,3,VerySmooth,3.045,0.368,0.239,0.229
 WindowMaterial:Glazing,REF D TINT 6MM,SpectralAverage,,6.00000E-003,0.30000,0.14000,0.36000,0.25000,0.18000,0.45000,0.00000,0.84000,0.82000,0.90000,1.00000,No
 WindowMaterial:Gas,AIR 6MM,Air,6.300E-003
 WindowMaterial:Glazing,CLEAR 6MM,SpectralAverage,,6.00000E-003,0.77500,7.10000E-002,7.10000E-002,0.88100,8.00000E-002,8.00000E-002,0.00000,0.84000,0.84000,0.90000,1.00000,No
 WindowConstruction,WINDOW_U_0.45_SHGC_0.31,55,3,VerySmooth,2.447,0.305,0.191,0.271
 WindowMaterial:Glazing,REF B CLEAR HI 6MM,SpectralAverage,,6.00000E-003,0.24000,0.16000,0.32000,0.30000,0.16000,0.29000,0.00000,0.84000,0.60000,0.90000,1.00000,No
 WindowMaterial:Gas,AIR 13MM,Air,1.270E-002
 WindowMaterial:Glazing,CLEAR 6MM,SpectralAverage,,6.00000E-003,0.77500,7.10000E-002,7.10000E-002,0.88100,8.00000E-002,8.00000E-002,0.00000,0.84000,0.84000,0.90000,1.00000,No
 WindowConstruction,WINDOW_U_0.33_SHGC_0.45,56,5,VerySmooth,1.745,0.462,0.377,0.637
 WindowMaterial:Glazing,CLEAR 3MM,SpectralAverage,,3.00000E-003,0.83700,7.50000E-002,7.50000E-002,0.89800,8.10000E-002,8.10000E-002,0.00000,0.84000,0.84000,0.90000,1.00000,No
 WindowMaterial:Gas,AIR 6MM,Air,6.300E-003
 WindowMaterial:Glazing,COATED POLY-77,SpectralAverage,,5.10000E-004,0.50400,0.40200,0.39800,0.76600,0.14700,0.16700,0.00000,7.50000E-002,0.72000,0.14000,1.00000,No
 WindowMaterial:Gas,AIR 6MM,Air,6.300E-003
 WindowMaterial:Glazing,CLEAR 3MM,SpectralAverage,,3.00000E-003,0.83700,7.50000E-002,7.50000E-002,0.89800,8.10000E-002,8.10000E-002,0.00000,0.84000,0.84000,0.90000,1.00000,No
 WindowConstruction,WINDOW_U_0.38_SHGC_0.26,57,3,VerySmooth,2.267,0.242,0.119,0.163
 WindowMaterial:Glazing,REF B TINT HI 6MM,SpectralAverage,,6.00000E-003,0.15000,9.00000E-002,0.33000,0.18000,8.00000E-002,0.28000,0.00000,0.84000,0.60000,0.90000,1.00000,No
 WindowMaterial:Gas,ARGON 13MM,Argon,1.270E-002
 WindowMaterial:Glazing,CLEAR 6MM,SpectralAverage,,6.00000E-003,0.77500,7.10000E-002,7.10000E-002,0.88100,8.00000E-002,8.00000E-002,0.00000,0.84000,0.84000,0.90000,1.00000,No
 WindowConstruction,WINDOW_U_0.25_SHGC_0.40,58,3,VerySmooth,1.493,0.373,0.284,0.444
 WindowMaterial:Glazing,LOE TINT 6MM,SpectralAverage,,6.00000E-003,0.36000,9.30000E-002,0.20000,0.50000,3.50000E-002,5.40000E-002,0.00000,0.84000,0.10000,0.90000,1.00000,No
 WindowMaterial:Gas,ARGON 13MM,Argon,1.270E-002
 WindowMaterial:Glazing,CLEAR 6MM,SpectralAverage,,6.00000E-003,0.77500,7.10000E-002,7.10000E-002,0.88100,8.00000E-002,8.00000E-002,0.00000,0.84000,0.84000,0.90000,1.00000,No
 WindowConstruction,WINDOW_U_0.35_SHGC_0.26,59,3,VerySmooth,2.158,0.238,0.136,0.173
 WindowMaterial:Glazing,REF C CLEAR MID 6MM,SpectralAverage,,6.00000E-003,0.17000,0.20000,0.42000,0.19000,0.21000,0.38000,0.00000,0.84000,0.51000,0.90000,1.00000,No
 WindowMaterial:Gas,ARGON 13MM,Argon,1.270E-002
 WindowMaterial:Glazing,CLEAR 6MM,SpectralAverage,,6.00000E-003,0.77500,7.10000E-002,7.10000E-002,0.88100,8.00000E-002,8.00000E-002,0.00000,0.84000,0.84000,0.90000,1.00000,No
 WindowConstruction,WINDOW_U_0.54_SHGC_0.27,60,3,VerySmooth,2.848,0.287,0.160,0.200
 WindowMaterial:Glazing,REF C CLEAR HI 6MM,SpectralAverage,,6.00000E-003,0.20000,0.16000,0.39000,0.22000,0.17000,0.35000,0.00000,0.84000,0.55000,0.90000,1.00000,No
 WindowMaterial:Gas,AIR 6MM,Air,6.300E-003
[...]
Zone_Surfaces,TOPFLOOR_PLENUM,   11
HeatTransfer_Surface,TOPFLOOR_PLENUM_WALL_NORTH,Wall,,CTF - ConductionTransferFunction,,0.553,0.511,,89.13,89.13,89.13,180.00,90.00,73.11,1.22,0.00,ExternalEnvironment,ASHRAETARP,ASHRAETARP,SunExposed,WindExposed,0.50,0.50,0.50,0.50,4
HeatTransfer_Surface,TOPFLOOR_PLENUM_WALL_EAST,Wall,,CTF - ConductionTransferFunction,,0.553,0.511,,59.42,59.42,59.42,90.00,90.00,48.74,1.22,0.00,ExternalEnvironment,ASHRAETARP,ASHRAETARP,SunExposed,WindExposed,0.50,0.50,0.50,0.50,4
HeatTransfer_Surface,TOPFLOOR_PLENUM_WALL_WEST,Wall,,CTF - ConductionTransferFunction,,0.553,0.511,,59.42,59.42,59.42,270.00,90.00,48.74,1.22,0.00,ExternalEnvironment,ASHRAETARP,ASHRAETARP,SunExposed,WindExposed,0.50,0.50,0.50,0.50,4
HeatTransfer_Surface,TOPFLOOR_PLENUM_WALL_SOUTH,Wall,,CTF - ConductionTransferFunction,,0.553,0.511,,89.13,89.13,89.13,0.00,90.00,73.11,1.22,0.00,ExternalEnvironment,ASHRAETARP,ASHRAETARP,SunExposed,WindExposed,0.50,0.50,0.50,0.50,4
HeatTransfer_Surface,iz-CORE_TOP_ZN_5_CEILING,Floor,,CTF - ConductionTransferFunction,,4.488,2.147,,2496.12,2496.12,2496.12,0.00,180.00,63.05,39.59,0.00,CORE_TOP_ZN_5_CEILING,Other/Same Surface Int Conv,ASHRAETARP,NoSun,NoWind,1.00,0.00,1.00,0.00,4
HeatTransfer_Surface,iz-PERIMETER_TOP_ZN_3_CEILING,Floor,,CTF - ConductionTransferFunction,,4.488,2.147,,313.41,313.41,313.41,0.00,180.00,63.96,6.47,0.00,PERIMETER_TOP_ZN_3_CEILING,Other/Same Surface Int Conv,ASHRAETARP,NoSun,NoWind,1.00,0.00,1.00,0.00,4
HeatTransfer_Surface,iz-PERIMETER_TOP_ZN_2_CEILING,Floor,,CTF - ConductionTransferFunction,,4.488,2.147,,201.98,201.98,201.98,45.00,180.00,6.47,48.74,0.00,PERIMETER_TOP_ZN_2_CEILING,Other/Same Surface Int Conv,ASHRAETARP,NoSun,NoWind,1.00,0.00,1.00,0.00,4
HeatTransfer_Surface,iz-PERIMETER_TOP_ZN_1_CEILING,Floor,,CTF - ConductionTransferFunction,,4.488,2.147,,313.42,313.42,313.42,0.00,180.00,73.11,6.47,0.00,PERIMETER_TOP_ZN_1_CEILING,Other/Same Surface Int Conv,ASHRAETARP,NoSun,NoWind,1.00,0.00,1.00,0.00,4
HeatTransfer_Surface,iz-PERIMETER_TOP_ZN_4_CEILING,Floor,,CTF - ConductionTransferFunction,,4.488,2.147,,201.98,201.98,201.98,315.00,180.00,6.47,39.59,0.00,PERIMETER_TOP_ZN_4_CEILING,Other/Same Surface Int Conv,ASHRAETARP,NoSun,NoWind,1.00,0.00,1.00,0.00,4
HeatTransfer_Surface,iz-DATACENTER_TOP_ZN_6_CEILING,Floor,,CTF - ConductionTransferFunction,,4.488,2.147,,36.20,36.20,36.20,0.00,180.00,0.91,39.59,0.00,DATACENTER_TOP_ZN_6_CEILING,Other/Same Surface Int Conv,ASHRAETARP,NoSun,NoWind,1.00,0.00,1.00,0.00,4
HeatTransfer_Surface,BUILDING_ROOF,Roof,,CTF - ConductionTransferFunction,,0.186,0.180,,3563.11,3563.11,3563.11,180.00,0.00,73.11,48.74,0.00,ExternalEnvironment,ASHRAETARP,ASHRAETARP,SunExposed,WindExposed,0.00,1.00,0.00,1.00,4
Zone_Surfaces,DATACENTER_BOT_ZN_6,    6
HeatTransfer_Surface,DATACENTER_BOT_ZN_6_WALL_NORTH,Wall,,CTF - ConductionTransferFunction,,6.299,3.242,,2.51,2.51,2.51,0.00,90.00,0.91,2.74,0.00,DATACENTER_BOT_ZN_6_WALL_NORTH-PPAUTOCREATEOTHER,Other/Same Surface Int Conv,ASHRAETARP,NoSun,NoWind,0.00,0.50,0.50,0.50,4
HeatTransfer_Surface,DATACENTER_BOT_ZN_6_WALL_SOUTH,Wall,,CTF - ConductionTransferFunction,,6.299,3.242,,2.51,2.51,2.51,180.00,90.00,0.91,2.74,0.00,DATACENTER_BOT_ZN_6_WALL_SOUTH-PPAUTOCREATEOTHER,Other/Same Surface Int Conv,ASHRAETARP,NoSun,NoWind,0.00,0.50,0.50,0.50,4
HeatTransfer_Surface,DATACENTER_BOT_ZN_6_WALL_EAST-PPAUTOCREATEOTHER,Wall,,CTF - ConductionTransferFunction,,6.299,3.242,,108.64,108.64,108.64,90.00,90.00,39.59,2.74,0.00,CORE_BOT_ZN_5_WALL_WEST,Other/Same Surface Int Conv,ASHRAETARP,NoSun,NoWind,0.00,0.50,0.50,0.50,4
HeatTransfer_Surface,DATACENTER_BOT_ZN_6_WALL_WEST,Wall,,CTF - ConductionTransferFunction,,6.299,3.242,,108.64,108.64,108.64,270.00,90.00,39.59,2.74,0.00,DATACENTER_BOT_ZN_6_WALL_WEST-PPAUTOCREATEOTHER,Other/Same Surface Int Conv,ASHRAETARP,NoSun,NoWind,0.00,0.50,0.50,0.50,4
HeatTransfer_Surface,DATACENTER_BOT_ZN_6_FLOOR,Floor,,CTF - ConductionTransferFunction,,3.839,1.986,,36.20,36.20,36.20,0.00,180.00,0.91,39.59,0.00,DATACENTER_BOT_ZN_6_FLOOR-PPAUTOCREATEOTHER,Other/Same Surface Int Conv,ASHRAETARP,NoSun,NoWind,0.00,0.00,1.00,0.00,4
HeatTransfer_Surface,DATACENTER_BOT_ZN_6_CEILING,Roof,,CTF - ConductionTransferFunction,,4.488,2.432,,36.20,36.20,36.20,180.00,0.00,0.91,39.59,0.00,iz-DATACENTER_BOT_ZN_6_CEILING,Other/Same Surface Int Conv,ASHRAETARP,NoSun,NoWind,0.00,1.00,0.00,1.00,4
Zone_Surfaces,DATACENTER_MID_ZN_6,    6
HeatTransfer_Surface,DATACENTER_MID_ZN_6_WALL_WEST,Wall,,CTF - ConductionTransferFunction,,6.299,3.242,,108.64,108.64,108.64,270.00,90.00,39.59,2.74,0.00,DATACENTER_MID_ZN_6_WALL_WEST-PPAUTOCREATEOTHER,Other/Same Surface Int Conv,ASHRAETARP,NoSun,NoWind,0.00,0.50,0.50,0.50,4
HeatTransfer_Surface,DATACENTER_MID_ZN_6_WALL_SOUTH,Wall,,CTF - ConductionTransferFunction,,6.299,3.242,,2.51,2.51,2.51,180.00,90.00,0.91,2.74,0.00,DATACENTER_MID_ZN_6_WALL_SOUTH-PPAUTOCREATEOTHER,Other/Same Surface Int Conv,ASHRAETARP,NoSun,NoWind,0.00,0.50,0.50,0.50,4
HeatTransfer_Surface,DATACENTER_MID_ZN_6_WALL_EAST,Wall,,CTF - ConductionTransferFunction,,6.299,3.242,,108.64,108.64,108.64,90.00,90.00,39.59,2.74,0.00,CORE_MID_ZN_5_WALL_WEST,Other/Same Surface Int Conv,ASHRAETARP,NoSun,NoWind,0.00,0.50,0.50,0.50,4
HeatTransfer_Surface,DATACENTER_MID_ZN_6_WALL_NORTH,Wall,,CTF - ConductionTransferFunction,,6.299,3.242,,2.51,2.51,2.51,0.00,90.00,0.91,2.74,0.00,DATACENTER_MID_ZN_6_WALL_NORTH-PPAUTOCREATEOTHER,Other/Same Surface Int Conv,ASHRAETARP,NoSun,NoWind,0.00,0.50,0.50,0.50,4
HeatTransfer_Surface,DATACENTER_MID_ZN_6_FLOOR,Floor,,CTF - ConductionTransferFunction,,3.839,1.986,,36.20,36.20,36.20,0.00,180.00,0.91,39.59,0.00,DATACENTER_MID_ZN_6_FLOOR,Other/Same Surface Int Conv,ASHRAETARP,NoSun,NoWind,0.00,0.00,1.00,0.00,4
HeatTransfer_Surface,DATACENTER_MID_ZN_6_CEILING,Roof,,CTF - ConductionTransferFunction,,4.488,2.432,,36.20,36.20,36.20,180.00,0.00,0.91,39.59,0.00,iz-DATACENTER_MID_ZN_6_CEILING,Other/Same Surface Int Conv,ASHRAETARP,NoSun,NoWind,0.00,1.00,0.00,1.00,4
Zone_Surfaces,DATACENTER_TOP_ZN_6,    6
HeatTransfer_Surface,DATACENTER_TOP_ZN_6_WALL_EAST,Wall,,CTF - ConductionTransferFunction,,6.299,3.242,,108.64,108.64,108.64,90.00,90.00,39.59,2.74,0.00,CORE_TOP_ZN_5_WALL_WEST,Other/Same Surface Int Conv,ASHRAETARP,NoSun,NoWind,0.00,0.50,0.50,0.50,4
HeatTransfer_Surface,DATACENTER_TOP_ZN_6_WALL_WEST,Wall,,CTF - ConductionTransferFunction,,6.299,3.242,,108.64,108.64,108.64,270.00,90.00,39.59,2.74,0.00,DATACENTER_TOP_ZN_6_WALL_WEST-PPAUTOCREATEOTHER,Other/Same Surface Int Conv,ASHRAETARP,NoSun,NoWind,0.00,0.50,0.50,0.50,4
HeatTransfer_Surface,DATACENTER_TOP_ZN_6_WALL_SOUTH,Wall,,CTF - ConductionTransferFunction,,6.299,3.242,,2.51,2.51,2.51,180.00,90.00,0.91,2.74,0.00,DATACENTER_TOP_ZN_6_WALL_SOUTH-PPAUTOCREATEOTHER,Other/Same Surface Int Conv,ASHRAETARP,NoSun,NoWind,0.00,0.50,0.50,0.50,4
HeatTransfer_Surface,DATACENTER_TOP_ZN_6_WALL_NORTH,Wall,,CTF - ConductionTransferFunction,,6.299,3.242,,2.51,2.51,2.51,0.00,90.00,0.91,2.74,0.00,DATACENTER_TOP_ZN_6_WALL_NORTH-PPAUTOCREATEOTHER,Other/Same Surface Int Conv,ASHRAETARP,NoSun,NoWind,0.00,0.50,0.50,0.50,4
HeatTransfer_Surface,DATACENTER_TOP_ZN_6_FLOOR,Floor,,CTF - ConductionTransferFunction,,3.839,1.986,,36.20,36.20,36.20,0.00,180.00,0.91,39.59,0.00,DATACENTER_TOP_ZN_6_FLOOR,Other/Same Surface Int Conv,ASHRAETARP,NoSun,NoWind,0.00,0.00,1.00,0.00,4
HeatTransfer_Surface,DATACENTER_TOP_ZN_6_CEILING,Roof,,CTF - ConductionTransferFunction,,4.488,2.432,,36.20,36.20,36.20,180.00,0.00,0.91,39.59,0.00,iz-DATACENTER_TOP_ZN_6_CEILING,Other/Same Surface Int Conv,ASHRAETARP,NoSun,NoWind,0.00,1.00,0.00,1.00,4
Zone_Surfaces,DATACENTER_BASEMENT_ZN_6,   10
HeatTransfer_Surface,DATACENTER_BASEMENT_ZN_6_WALL_NORTH,Wall,,CTF - ConductionTransferFunction,,6.526,3.301,,39.22,39.22,39.22,0.00,90.00,16.08,2.44,0.00,SURFPROPOTHSDCOEFBASEMENTAVGWALL,N/A-OSC,ASHRAETARP,NoSun,NoWind,0.00,0.50,0.50,0.50,4
HeatTransfer_Surface,DATACENTER_BASEMENT_ZN_6_WALL_SOUTH,Wall,,CTF - ConductionTransferFunction,,6.526,3.301,,39.22,39.22,39.22,180.00,90.00,16.08,2.44,0.00,SURFPROPOTHSDCOEFBASEMENTAVGWALL,N/A-OSC,ASHRAETARP,NoSun,NoWind,0.00,0.50,0.50,0.50,4
HeatTransfer_Surface,DATACENTER_BASEMENT_ZN_6_WALL_WEST,Wall,,CTF - ConductionTransferFunction,,6.526,3.301,,118.87,118.87,118.87,270.00,90.00,48.74,2.44,0.00,SURFPROPOTHSDCOEFBASEMENTAVGWALL,N/A-OSC,ASHRAETARP,NoSun,NoWind,0.00,0.50,0.50,0.50,4
HeatTransfer_Surface,DATACENTER_BASEMENT_ZN_6_WALL_EAST,Wall,,CTF - ConductionTransferFunction,,6.299,3.242,,118.87,118.87,118.87,90.00,90.00,48.74,2.44,0.00,BASEMENT_WALL_WEST,Other/Same Surface Int Conv,ASHRAETARP,NoSun,NoWind,0.00,0.50,0.50,0.50,4
HeatTransfer_Surface,DATACENTER_BASEMENT_ZN_6_FLOOR,Floor,,CTF - ConductionTransferFunction,,3.285,1.827,,783.68,783.68,783.68,0.00,180.00,16.08,48.74,0.00,SURFPROPOTHSDCOEFBASEMENTAVGFLOOR,N/A-OSC,ASHRAETARP,NoSun,NoWind,0.00,0.00,1.00,0.00,4
HeatTransfer_Surface,DATACENTER_BOT_ZN_6_FLOOR-PPAUTOCREATEOTHER,Roof,,CTF - ConductionTransferFunction,,3.839,2.228,,36.20,36.20,36.20,180.00,0.00,0.91,39.59,0.00,DATACENTER_BOT_ZN_6_FLOOR,Other/Same Surface Int Conv,ASHRAETARP,NoSun,NoWind,0.00,1.00,0.00,1.00,4
HeatTransfer_Surface,DATACENTER_BASEMENT_ZN_6_CEILING-CORE_BOT_ZN_5,Roof,,CTF - ConductionTransferFunction,,3.839,2.228,,419.35,419.35,419.35,180.00,0.00,10.59,39.59,0.00,DATACENTER_BASEMENT_ZN_6_CEILING-CORE_BOT_ZN_5-PPAUTOCREATEOTHER,Other/Same Surface Int Conv,ASHRAETARP,NoSun,NoWind,0.00,1.00,0.00,1.00,4
HeatTransfer_Surface,PERIMETER_BOT_ZN_4_FLOOR-PPAUTOCREATEOTHER,Roof,,CTF - ConductionTransferFunction,,3.839,2.228,,201.98,201.98,201.98,135.00,0.00,6.47,48.74,0.00,PERIMETER_BOT_ZN_4_FLOOR,Other/Same Surface Int Conv,ASHRAETARP,NoSun,NoWind,0.00,1.00,0.00,1.00,4
HeatTransfer_Surface,DATACENTER_BASEMENT_ZN_6_CEILING-PERIMETER_BOT_ZN_1,Roof,,CTF - ConductionTransferFunction,,3.839,2.228,,63.08,63.08,63.08,180.00,0.00,16.08,6.47,0.00,DATACENTER_BASEMENT_ZN_6-PERIMETER_BOT_ZN_1-PPAUTOCREATEOTHER,Other/Same Surface Int Conv,ASHRAETARP,NoSun,NoWind,0.00,1.00,0.00,1.00,4
HeatTransfer_Surface,DATACENTER_BASEMENT_ZN_6_CEILING-PERIMETER_BOT_ZN_3,Roof,,CTF - ConductionTransferFunction,,3.839,2.228,,63.07,63.07,63.07,180.00,0.00,11.51,6.47,0.00,DATACENTER_BASEMENT_ZN_6_CEILING-PERIMETER_BOT_ZN_3-PPAUTOCREATEOTHER,Other/Same Surface Int Conv,ASHRAETARP,NoSun,NoWind,0.00,1.00,0.00,1.00,4
! <Environment>,Environment Name,Environment Type, Start Date, End Date, Start DayOfWeek, Duration {#days}, Source:Start DayOfWeek,  Use Daylight Saving, Use Holidays, Apply Weekend Holiday Rule,  Use Rain Values, Use Snow Values
! <Environment:Special Days>, Special Day Name, Special Day Type, Source, Start Date, Duration {#days}
! <Environment:Daylight Saving>, Daylight Saving Indicator, Source, Start Date, End Date
! <Environment:WarmupDays>, NumberofWarmupDays
Environment,BOISE AIR TERMINAL  UO ANN HTG 99.6% CONDNS DB,SizingPeriod:DesignDay,12/21,12/21,WinterDesignDay,1,N/A,N/A,N/A,N/A,N/A,N/A
Environment:Daylight Saving,No,SizingPeriod:DesignDay
! <Environment:Design Day Data>, Max Dry-Bulb Temp {C}, Temp Range {dC}, Temp Range Ind Type, Hum Ind Value at Max Temp, Hum Ind Type,Pressure {Pa}, Wind Direction {deg CW from N}, Wind Speed {m/s}, Clearness, Rain, Snow
! <Environment:Design_Day_Misc>,DayOfYear,ASHRAE A Coeff,ASHRAE B Coeff,ASHRAE C Coeff,Solar Constant-Annual Variation,Eq of Time {minutes}, Solar Declination Angle {deg}, Solar Model
Environment:Design Day Data,-16.30,0.00,DefaultMultipliers,93182,120,2.3,0.00,No,No
Environment:Design_Day_Misc,355,1232.8,0.1424,5.7719E-002,1.0,2.45,-23.5,ASHRAEClearSky
Environment:WarmupDays, 13
! <Tabular Report>,Style,Unit Conversion
Tabular Report,Commaandhtml,commaandhtml
! <Warmup Convergence Information>,Zone Name,Environment Type/Name,Average Warmup Temperature Difference {deltaC},Std Dev Warmup Temperature Difference {deltaC},Max Temperature Pass/Fail Convergence,Min Temperature Pass/Fail Convergence,Average Warmup Load Difference {W},Std Dev Warmup Load Difference {W},Heating Load Pass/Fail Convergence,Cooling Load Pass/Fail Convergence
 Warmup Convergence Information,BASEMENT,SizingPeriod: BOISE AIR TERMINAL  UO ANN HTG 99.6% CONDNS DB,1.8393353271E-003,1.2848062120E-002,Pass,Pass,2.5434360102E-003,4.1988815907E-002,Pass,Pass
 Warmup Convergence Information,CORE_BOTTOM,SizingPeriod: BOISE AIR TERMINAL  UO ANN HTG 99.6% CONDNS DB,2.3883960419E-003,6.2165516782E-003,Pass,Pass,3.2869983029E-002,0.1739219701,Pass,Pass
 Warmup Convergence Information,CORE_MID,SizingPeriod: BOISE AIR TERMINAL  UO ANN HTG 99.6% CONDNS DB,7.2542620808E-004,2.4031925309E-003,Pass,Pass,3.6644788587E-002,0.1881663114,Pass,Pass
 Warmup Convergence Information,CORE_TOP,SizingPeriod: BOISE AIR TERMINAL  UO ANN HTG 99.6% CONDNS DB,1.5005176522E-003,4.8001660765E-003,Pass,Pass,3.4639303546E-002,0.1800019340,Pass,Pass
 Warmup Convergence Information,PERIMETER_BOT_ZN_3,SizingPeriod: BOISE AIR TERMINAL  UO ANN HTG 99.6% CONDNS DB,8.3415735671E-004,2.1540138893E-003,Pass,Pass,5.5657406611E-002,0.3354529327,Pass,Pass
 Warmup Convergence Information,PERIMETER_BOT_ZN_2,SizingPeriod: BOISE AIR TERMINAL  UO ANN HTG 99.6% CONDNS DB,1.2524828453E-003,3.9473563381E-003,Pass,Pass,4.1155346958E-002,0.2078375985,Pass,Pass
 Warmup Convergence Information,PERIMETER_BOT_ZN_1,SizingPeriod: BOISE AIR TERMINAL  UO ANN HTG 99.6% CONDNS DB,1.2009784591E-003,3.7468198783E-003,Pass,Pass,3.9136223671E-002,0.1983786402,Pass,Pass
 Warmup Convergence Information,PERIMETER_BOT_ZN_4,SizingPeriod: BOISE AIR TERMINAL  UO ANN HTG 99.6% CONDNS DB,5.8253858407E-003,1.7151734317E-002,Pass,Pass,3.1809809072E-002,0.1703740467,Pass,Pass
 Warmup Convergence Information,PERIMETER_MID_ZN_3,SizingPeriod: BOISE AIR TERMINAL  UO ANN HTG 99.6% CONDNS DB,8.1956717261E-003,2.4322282866E-002,Pass,Pass,3.1360495543E-002,0.1710256509,Pass,Pass
 Warmup Convergence Information,PERIMETER_MID_ZN_2,SizingPeriod: BOISE AIR TERMINAL  UO ANN HTG 99.6% CONDNS DB,7.4848633729E-003,2.3635978071E-002,Pass,Pass,3.3183879739E-002,0.1731081135,Pass,Pass
 Warmup Convergence Information,PERIMETER_MID_ZN_1,SizingPeriod: BOISE AIR TERMINAL  UO ANN HTG 99.6% CONDNS DB,6.8558696216E-003,2.0782160658E-002,Pass,Pass,3.2546265610E-002,0.1721868644,Pass,Pass
 Warmup Convergence Information,PERIMETER_MID_ZN_4,SizingPeriod: BOISE AIR TERMINAL  UO ANN HTG 99.6% CONDNS DB,4.9354943132E-003,1.6171914486E-002,Pass,Pass,3.5035945131E-002,0.1791539593,Pass,Pass
 Warmup Convergence Information,PERIMETER_TOP_ZN_3,SizingPeriod: BOISE AIR TERMINAL  UO ANN HTG 99.6% CONDNS DB,1.3771668449E-002,4.2196564174E-002,Pass,Pass,3.1075333687E-002,0.1706313926,Pass,Pass
 Warmup Convergence Information,PERIMETER_TOP_ZN_2,SizingPeriod: BOISE AIR TERMINAL  UO ANN HTG 99.6% CONDNS DB,1.0025920369E-002,3.1888294298E-002,Pass,Pass,3.2665832518E-002,0.1718074692,Pass,Pass
 Warmup Convergence Information,PERIMETER_TOP_ZN_1,SizingPeriod: BOISE AIR TERMINAL  UO ANN HTG 99.6% CONDNS DB,1.1696978909E-002,3.6519272738E-002,Pass,Pass,3.1813603052E-002,0.1706386108,Pass,Pass
 Warmup Convergence Information,PERIMETER_TOP_ZN_4,SizingPeriod: BOISE AIR TERMINAL  UO ANN HTG 99.6% CONDNS DB,6.1880941075E-003,2.0327902980E-002,Pass,Pass,3.4743199632E-002,0.1779771049,Pass,Pass
 Warmup Convergence Information,GROUNDFLOOR_PLENUM,SizingPeriod: BOISE AIR TERMINAL  UO ANN HTG 99.6% CONDNS DB,9.3868329776E-004,2.2037242387E-003,Pass,Pass,3.8521646187E-002,0.2278435387,Pass,Pass
 Warmup Convergence Information,MIDFLOOR_PLENUM,SizingPeriod: BOISE AIR TERMINAL  UO ANN HTG 99.6% CONDNS DB,1.0928569076E-003,2.0688464295E-003,Pass,Pass,4.6208598359E-002,0.2136556414,Pass,Pass
 Warmup Convergence Information,TOPFLOOR_PLENUM,SizingPeriod: BOISE AIR TERMINAL  UO ANN HTG 99.6% CONDNS DB,3.7705317371E-003,9.7215827336E-003,Pass,Pass,3.2187371498E-002,0.1750129351,Pass,Pass
 Warmup Convergence Information,DATACENTER_BOT_ZN_6,SizingPeriod: BOISE AIR TERMINAL  UO ANN HTG 99.6% CONDNS DB,1.5344759066E-005,1.5346998865E-005,Pass,Pass,1.9432980697E-005,1.9385399597E-005,Pass,Pass
 Warmup Convergence Information,DATACENTER_MID_ZN_6,SizingPeriod: BOISE AIR TERMINAL  UO ANN HTG 99.6% CONDNS DB,0.1708066823,3.3610260325E-003,Pass,Pass,0.3967123016,8.7493348165E-002,Pass,Pass
 Warmup Convergence Information,DATACENTER_TOP_ZN_6,SizingPeriod: BOISE AIR TERMINAL  UO ANN HTG 99.6% CONDNS DB,4.7976346268E-002,1.6653714645E-002,Pass,Pass,20.7713732578,277.9979579151,Pass,Pass
 Warmup Convergence Information,DATACENTER_BASEMENT_ZN_6,SizingPeriod: BOISE AIR TERMINAL  UO ANN HTG 99.6% CONDNS DB,9.7876771065E-006,1.1791876983E-005,Pass,Pass,8.2459974007E-007,9.9247030373E-007,Pass,Pass
Environment,BOISE AIR TERMINAL  UO ANN CLG .4% CONDNS DB=>MWB,SizingPeriod:DesignDay,07/21,07/21,SummerDesignDay,1,N/A,N/A,N/A,N/A,N/A,N/A
Environment:Daylight Saving,No,SizingPeriod:DesignDay
Environment:Design Day Data,36.70,16.70,DefaultMultipliers,93182,330,4.2,0.00,No,No
Environment:Design_Day_Misc,202,1084.4,0.2082,0.1365,1.0,-6.23,20.6,ASHRAETau
Environment:WarmupDays,  6
 Warmup Convergence Information,BASEMENT,SizingPeriod: BOISE AIR TERMINAL  UO ANN CLG .4% CONDNS DB=>MWB,1.5187291221E-002,4.4517000397E-002,Pass,Pass,2.3117570989E-002,0.1172327732,Pass,Pass
 Warmup Convergence Information,CORE_BOTTOM,SizingPeriod: BOISE AIR TERMINAL  UO ANN CLG .4% CONDNS DB=>MWB,7.8353013410E-003,3.4024535460E-002,Pass,Pass,2.9059197987E-002,0.1369944663,Pass,Pass
 Warmup Convergence Information,CORE_MID,SizingPeriod: BOISE AIR TERMINAL  UO ANN CLG .4% CONDNS DB=>MWB,1.4299347806E-002,4.9433936964E-002,Pass,Pass,1.8254693449E-002,9.4447633951E-002,Pass,Pass
 Warmup Convergence Information,CORE_TOP,SizingPeriod: BOISE AIR TERMINAL  UO ANN CLG .4% CONDNS DB=>MWB,1.2882252469E-002,5.2441850093E-002,Pass,Pass,2.7212419839E-002,0.1318354432,Pass,Pass
 Warmup Convergence Information,PERIMETER_BOT_ZN_3,SizingPeriod: BOISE AIR TERMINAL  UO ANN CLG .4% CONDNS DB=>MWB,5.2272436294E-003,3.2029057369E-002,Pass,Pass,4.2711524835E-002,0.1787935229,Pass,Pass
 Warmup Convergence Information,PERIMETER_BOT_ZN_2,SizingPeriod: BOISE AIR TERMINAL  UO ANN CLG .4% CONDNS DB=>MWB,6.1404145429E-003,2.4511239465E-002,Pass,Pass,3.7228156913E-002,0.2119100109,Pass,Pass
 Warmup Convergence Information,PERIMETER_BOT_ZN_1,SizingPeriod: BOISE AIR TERMINAL  UO ANN CLG .4% CONDNS DB=>MWB,6.2646159004E-003,3.3495626278E-002,Pass,Pass,7.7931441494E-002,0.4423915601,Pass,Pass
 Warmup Convergence Information,PERIMETER_BOT_ZN_4,SizingPeriod: BOISE AIR TERMINAL  UO ANN CLG .4% CONDNS DB=>MWB,1.2935084820E-002,7.5005928200E-002,Pass,Pass,5.4650480557E-002,0.3119533778,Pass,Pass
 Warmup Convergence Information,PERIMETER_MID_ZN_3,SizingPeriod: BOISE AIR TERMINAL  UO ANN CLG .4% CONDNS DB=>MWB,1.1754064552E-002,4.8729836849E-002,Pass,Pass,5.7822803566E-002,0.3044805055,Pass,Pass
 Warmup Convergence Information,PERIMETER_MID_ZN_2,SizingPeriod: BOISE AIR TERMINAL  UO ANN CLG .4% CONDNS DB=>MWB,1.4771705308E-002,4.9115069668E-002,Pass,Pass,3.5910913621E-002,0.2544862444,Pass,Pass
 Warmup Convergence Information,PERIMETER_MID_ZN_1,SizingPeriod: BOISE AIR TERMINAL  UO ANN CLG .4% CONDNS DB=>MWB,1.3630846338E-002,5.4233086921E-002,Pass,Pass,7.8535577416E-002,0.4833686098,Pass,Pass
 Warmup Convergence Information,PERIMETER_MID_ZN_4,SizingPeriod: BOISE AIR TERMINAL  UO ANN CLG .4% CONDNS DB=>MWB,1.9291122975E-002,7.4844341525E-002,Pass,Pass,6.6541486454E-002,0.4237001364,Pass,Pass
 Warmup Convergence Information,PERIMETER_TOP_ZN_3,SizingPeriod: BOISE AIR TERMINAL  UO ANN CLG .4% CONDNS DB=>MWB,1.1102656788E-002,4.5322446642E-002,Pass,Pass,6.6875804644E-002,0.3846703337,Pass,Pass
 Warmup Convergence Information,PERIMETER_TOP_ZN_2,SizingPeriod: BOISE AIR TERMINAL  UO ANN CLG .4% CONDNS DB=>MWB,1.5612981771E-002,4.8942991703E-002,Pass,Pass,2.9009870872E-002,0.2196993055,Pass,Pass
 Warmup Convergence Information,PERIMETER_TOP_ZN_1,SizingPeriod: BOISE AIR TERMINAL  UO ANN CLG .4% CONDNS DB=>MWB,1.3668102975E-002,5.0971185524E-002,Pass,Pass,6.1211691735E-002,0.4159265430,Pass,Pass
