  0
SECTION
  2
ENTITIES
999
DXF created from EnergyPlus
999
Program Version,EnergyPlus, Version 8.4.0-09f5359d8a, YMD=2017.06.07 13:31
999
Polygon Action,ThickPolyline
999
Color Scheme,Default
999
Text - True North
  0
TEXT
  8
1
  6
Continuous
 62
  3
 10
      -11.00000
 20
        3.00000
 30
        0.10000
 40
 .25
  1
True North
 41
 0.0
  7
MONOTXT
210
0.0
220
0.0
230
1.0
999
Text - Building Title
  0
TEXT
  8
1
  6
Continuous
 62
  3
 10
      -14.00000
 20
       -1.00000
 30
        0.10000
 40
 .4
  1
Building - Large Office
 41
 0.0
  7
MONOTXT
210
0.0
220
0.0
230
1.0
999
North Arrow Stem
  0
3DFACE
  8
1
 62
  3
 10
      -10.00000
 20
        3.00000
 30
        0.10000
 11
      -10.00000
 21
        3.00000
 31
        0.00000
 12
      -10.00000
 22
        0.00000
 32
        0.00000
 13
      -10.00000
 23
        0.00000
 33
        0.10000
999
North Arrow Head 1
  0
3DFACE
  8
1
 62
  3
 10
      -10.00000
 20
        3.00000
 30
        0.10000
 11
      -10.00000
 21
        3.00000
 31
        0.00000
 12
      -10.50000
 22
        2.13397
 32
        0.00000
 13
      -10.50000
 23
        2.13397
 33
        0.10000
999
North Arrow Head 2
  0
3DFACE
  8
1
 62
  3
 10
      -10.00000
 20
        3.00000
 30
        0.10000
 11
      -10.00000
 21
        3.00000
 31
        0.00000
 12
       -9.50000
 22
        2.13397
 32
        0.00000
 13
       -9.50000
 23
        2.13397
 33
        0.10000
999
North Arrow Side 1
  0
3DFACE
  8
1
 62
  3
 10
      -10.50000
 20
        4.50000
 30
        0.10000
 11
      -10.50000
 21
        4.50000
 31
        0.00000
 12
      -10.50000
 22
        3.50000
 32
        0.00000
 13
      -10.50000
 23
        3.50000
 33
        0.10000
999
North Arrow Side 2
  0
3DFACE
  8
1
 62
  3
 10
      -10.50000
 20
        4.50000
 30
        0.10000
 11
      -10.50000
 21
        4.50000
 31
        0.00000
 12
       -9.50000
 22
        3.50000
 32
        0.00000
 13
       -9.50000
 23
        3.50000
 33
        0.10000
999
North Arrow Side 3
  0
3DFACE
  8
1
 62
  3
 10
       -9.50000
 20
        4.50000
 30
        0.10000
 11
       -9.50000
 21
        4.50000
 31
        0.00000
 12
       -9.50000
 22
        3.50000
 32
        0.00000
 13
       -9.50000
 23
        3.50000
 33
        0.10000
999
Zone Names
999
Zone=1:BASEMENT
999
Zone=2:CORE_BOTTOM
999
Zone=3:CORE_MID
999
Zone=4:CORE_TOP
999
Zone=5:PERIMETER_BOT_ZN_3
999
Zone=6:PERIMETER_BOT_ZN_2
999
Zone=7:PERIMETER_BOT_ZN_1
999
Zone=8:PERIMETER_BOT_ZN_4
999
Zone=9:PERIMETER_MID_ZN_3
999
Zone=10:PERIMETER_MID_ZN_2
999
Zone=11:PERIMETER_MID_ZN_1
999
Zone=12:PERIMETER_MID_ZN_4
999
Zone=13:PERIMETER_TOP_ZN_3
999
Zone=14:PERIMETER_TOP_ZN_2
999
Zone=15:PERIMETER_TOP_ZN_1
999
Zone=16:PERIMETER_TOP_ZN_4
999
Zone=17:GROUNDFLOOR_PLENUM
999
Zone=18:MIDFLOOR_PLENUM
999
Zone=19:TOPFLOOR_PLENUM
999
Zone=20:DATACENTER_BOT_ZN_6
999
Zone=21:DATACENTER_MID_ZN_6
999
Zone=22:DATACENTER_TOP_ZN_6
999
Zone=23:DATACENTER_BASEMENT_ZN_6
999
BASEMENT:BASEMENT_WALL_EAST
  0
3DFACE
  8
BASEMENT
 62
 43
 10
       73.10720
 20
        0.00000
 30
        0.00000
 11
       73.10720
 21
        0.00000
 31
       -2.43900
 12
       73.10720
 22
       48.73810
 32
       -2.43900
 13
       73.10720
 23
       48.73810
 33
        0.00000
999
BASEMENT:BASEMENT_WALL_SOUTH
  0
3DFACE
  8
BASEMENT
 62
 43
 10
       16.07940
 20
        0.00000
 30
        0.00000
 11
       16.07940
 21
        0.00000
 31
       -2.43900
 12
       73.10720
 22
        0.00000
 32
       -2.43900
 13
       73.10720
 23
        0.00000
 33
        0.00000
999
BASEMENT:BASEMENT_WALL_NORTH
  0
3DFACE
  8
BASEMENT
 62
 43
 10
       73.10720
 20
       48.73810
 30
        0.00000
 11
       73.10720
 21
       48.73810
 31
       -2.43900
 12
       16.07940
 22
       48.73810
 32
       -2.43900
 13
       16.07940
 23
       48.73810
 33
        0.00000
999
BASEMENT:BASEMENT_WALL_WEST
  0
3DFACE
  8
BASEMENT
 62
 43
 10
       16.07940
 20
       48.73810
 30
        0.00000
 11
       16.07940
 21
       48.73810
 31
       -2.43900
 12
       16.07940
 22
        0.00000
 32
       -2.43900
 13
       16.07940
 23
        0.00000
 33
        0.00000
999
BASEMENT:BASEMENT_FLOOR
  0
3DFACE
  8
BASEMENT
 62
  8
 10
       73.10720
 20
       48.73810
 30
       -2.43900
 11
       73.10720
 21
        0.00000
 31
       -2.43900
 12
       16.07940
 22
        0.00000
 32
       -2.43900
 13
       16.07940
 23
       48.73810
 33
       -2.43900
999
BASEMENT:PERIMETER_BOT_ZN_2_FLOOR-PPAUTOCREATEOTHER
  0
3DFACE
  8
BASEMENT
 62
 15
 10
       68.53400
 20
       44.16500
 30
        0.00000
 11
       68.53400
 21
        4.57320
 31
        0.00000
 12
       73.10720
 22
        0.00000
 32
        0.00000
 13
       73.10720
 23
       48.73810
 33
        0.00000
999
BASEMENT:PERIMETER_BOT_ZN_1_FLOOR-PPAUTOCREATEOTHER
  0
3DFACE
  8
BASEMENT
 62
 15
 10
       16.07940
 20
        4.57320
 30
        0.00000
 11
       16.07940
 21
        0.00000
 31
        0.00000
 12
       73.10720
 22
        0.00000
 32
        0.00000
 13
       68.53400
 23
        4.57320
 33
        0.00000
999
BASEMENT:CORE_BOT_ZN_5_FLOOR-PPAUTOCREATEOTHER
  0
3DFACE
  8
BASEMENT
 62
 15
 10
       16.07940
 20
       44.16500
 30
        0.00000
 11
       16.07940
 21
        4.57320
 31
        0.00000
 12
       68.53400
 22
        4.57320
 32
        0.00000
 13
       68.53400
 23
       44.16500
 33
        0.00000
999
BASEMENT:PERIMETER_BOT_ZN_3_FLOOR-PPAUTOCREATEOTHER
  0
3DFACE
  8
BASEMENT
 62
 15
 10
       16.07940
 20
       48.73810
 30
        0.00000
 11
       16.07940
 21
       44.16500
 31
        0.00000
 12
       68.53400
 22
       44.16500
 32
        0.00000
 13
       73.10720
 23
       48.73810
 33
        0.00000
999
CORE_BOTTOM:CORE_BOT_ZN_5_WALL_SOUTH
  0
3DFACE
  8
CORE_BOTTOM
 62
 43
 10
        5.48760
 20
        4.57320
 30
        2.74400
 11
        5.48760
 21
        4.57320
 31
        0.00000
 12
       68.53400
 22
        4.57320
 32
        0.00000
 13
       68.53400
 23
        4.57320
 33
        2.74400
999
CORE_BOTTOM:CORE_BOT_ZN_5_WALL_WEST
  0
3DFACE
  8
CORE_BOTTOM
 62
 43
 10
        5.48760
 20
       44.16500
 30
        2.74400
 11
        5.48760
 21
       44.16500
 31
        0.00000
 12
        5.48760
 22
        4.57320
 32
        0.00000
 13
        5.48760
 23
        4.57320
 33
        2.74400
999
CORE_BOTTOM:CORE_BOT_ZN_5_WALL_NORTH
  0
3DFACE
  8
CORE_BOTTOM
 62
 43
 10
       68.53400
 20
       44.16500
 30
        2.74400
 11
       68.53400
 21
       44.16500
 31
        0.00000
 12
        5.48760
 22
       44.16500
 32
        0.00000
 13
        5.48760
 23
       44.16500
 33
        2.74400
999
CORE_BOTTOM:CORE_BOT_ZN_5_WALL_EAST
  0
3DFACE
  8
CORE_BOTTOM
 62
 43
 10
       68.53400
 20
        4.57320
 30
        2.74400
 11
       68.53400
 21
        4.57320
 31
        0.00000
 12
       68.53400
 22
       44.16500
 32
        0.00000
 13
       68.53400
 23
       44.16500
 33
        2.74400
999
CORE_BOTTOM:DATACENTER_BASEMENT_ZN_6_CEILING-CORE_BOT_ZN_5-PPAUTOCREATEOTHER
  0
3DFACE
  8
CORE_BOTTOM
 62
  8
 10
       16.07820
 20
       44.16500
 30
        0.00000
 11
       16.07820
 21
        4.57320
 31
        0.00000
 12
        5.48760
 22
        4.57320
 32
        0.00000
 13
        5.48760
 23
       44.16500
 33
        0.00000
999
CORE_BOTTOM:CORE_BOT_ZN_5_FLOOR
  0
3DFACE
  8
CORE_BOTTOM
 62
  8
 10
       68.53400
 20
       44.16500
 30
        0.00000
 11
       68.53400
 21
        4.57320
 31
        0.00000
 12
       16.07820
 22
        4.57320
 32
        0.00000
 13
       16.07820
 23
       44.16500
 33
        0.00000
999
CORE_BOTTOM:CORE_BOT_ZN_5_CEILING
  0
3DFACE
  8
CORE_BOTTOM
 62
 15
 10
        5.48760
 20
       44.16500
 30
        2.74400
 11
        5.48760
 21
        4.57320
 31
        2.74400
 12
       68.53400
 22
        4.57320
 32
        2.74400
 13
       68.53400
 23
       44.16500
 33
        2.74400
999
CORE_MID:CORE_MID_ZN_5_WALL_SOUTH
  0
3DFACE
  8
CORE_MID
 62
 43
 10
        5.48760
 20
        4.57320
 30
       19.51230
 11
        5.48760
 21
        4.57320
 31
       16.76830
 12
       68.53400
 22
        4.57320
 32
       16.76830
 13
       68.53400
 23
        4.57320
 33
       19.51230
999
CORE_MID:CORE_MID_ZN_5_WALL_WEST
  0
3DFACE
  8
CORE_MID
 62
 43
 10
        5.48760
 20
       44.16500
 30
       19.51230
 11
        5.48760
 21
       44.16500
 31
       16.76830
 12
        5.48760
 22
        4.57320
 32
       16.76830
 13
        5.48760
 23
        4.57320
 33
       19.51230
999
CORE_MID:CORE_MID_ZN_5_WALL_NORTH
  0
3DFACE
  8
CORE_MID
 62
 43
 10
       68.53400
 20
       44.16500
 30
       19.51230
 11
       68.53400
 21
       44.16500
 31
       16.76830
 12
        5.48760
 22
       44.16500
 32
       16.76830
 13
        5.48760
 23
       44.16500
 33
       19.51230
999
CORE_MID:CORE_MID_ZN_5_WALL_EAST
  0
3DFACE
  8
CORE_MID
 62
 43
 10
       68.53400
 20
        4.57320
 30
       19.51230
 11
       68.53400
 21
        4.57320
 31
       16.76830
 12
       68.53400
 22
       44.16500
 32
       16.76830
 13
       68.53400
 23
       44.16500
 33
       19.51230
999
CORE_MID:CORE_MID_ZN_5_FLOOR
  0
3DFACE
  8
CORE_MID
 62
  8
 10
       68.53400
 20
       44.16500
 30
       16.76830
 11
       68.53400
 21
        4.57320
 31
       16.76830
 12
        5.48760
 22
        4.57320
 32
       16.76830
 13
        5.48760
 23
       44.16500
 33
       16.76830
999
CORE_MID:CORE_MID_ZN_5_CEILING
  0
3DFACE
  8
CORE_MID
 62
 15
 10
        5.48760
 20
       44.16500
 30
       19.51230
 11
        5.48760
 21
        4.57320
 31
       19.51230
 12
       68.53400
 22
        4.57320
 32
       19.51230
 13
       68.53400
 23
       44.16500
 33
       19.51230
999
CORE_TOP:CORE_TOP_ZN_5_WALL_SOUTH
  0
3DFACE
  8
CORE_TOP
 62
 43
 10
        5.48760
 20
        4.57320
 30
       36.28060
 11
        5.48760
 21
        4.57320
 31
       33.53660
 12
       68.53400
 22
        4.57320
 32
       33.53660
 13
       68.53400
 23
        4.57320
 33
       36.28060
999
CORE_TOP:CORE_TOP_ZN_5_WALL_WEST
  0
3DFACE
  8
CORE_TOP
 62
 43
 10
        5.48760
 20
       44.16500
 30
       36.28060
 11
        5.48760
 21
       44.16500
 31
       33.53660
 12
        5.48760
 22
        4.57320
 32
       33.53660
 13
        5.48760
 23
        4.57320
 33
       36.28060
999
CORE_TOP:CORE_TOP_ZN_5_WALL_NORTH
  0
3DFACE
  8
CORE_TOP
 62
 43
 10
       68.53400
 20
       44.16500
 30
       36.28060
 11
       68.53400
 21
       44.16500
 31
       33.53660
 12
        5.48760
 22
       44.16500
 32
       33.53660
 13
        5.48760
 23
       44.16500
 33
       36.28060
999
CORE_TOP:CORE_TOP_ZN_5_WALL_EAST
  0
3DFACE
  8
CORE_TOP
 62
 43
 10
       68.53400
 20
        4.57320
 30
       36.28060
 11
       68.53400
 21
        4.57320
 31
       33.53660
 12
       68.53400
 22
       44.16500
 32
       33.53660
 13
       68.53400
 23
       44.16500
 33
       36.28060
999
CORE_TOP:CORE_TOP_ZN_5_FLOOR
  0
3DFACE
  8
CORE_TOP
 62
  8
 10
       68.53400
 20
       44.16500
 30
       33.53660
 11
       68.53400
 21
        4.57320
 31
       33.53660
 12
        5.48760
 22
        4.57320
 32
       33.53660
 13
        5.48760
 23
       44.16500
 33
       33.53660
999
CORE_TOP:CORE_TOP_ZN_5_CEILING
  0
3DFACE
  8
CORE_TOP
 62
 15
 10
        5.48760
 20
       44.16500
 30
       36.28060
 11
        5.48760
 21
        4.57320
 31
       36.28060
 12
       68.53400
 22
        4.57320
 32
       36.28060
 13
       68.53400
 23
       44.16500
 33
       36.28060
999
PERIMETER_BOT_ZN_3:PERIMETER_BOT_ZN_3_WALL_NORTH
  0
3DFACE
  8
PERIMETER_BOT_ZN_3
 62
 43
 10
       73.10720
 20
       48.73810
 30
        2.74400
 11
       73.10720
 21
       48.73810
 31
        0.00000
 12
        0.00000
 22
       48.73810
 32
        0.00000
 13
        0.00000
 23
       48.73810
 33
        2.74400
999
PERIMETER_BOT_ZN_3:PERIMETER_BOT_ZN_3_WALL_NORTH_WINDOW
  0
3DFACE
  8
PERIMETER_BOT_ZN_3
 62
143
 10
       73.10700
 20
       48.73810
 30
        2.50000
 11
       73.10700
 21
       48.73810
 31
        0.91472
 12
        0.00000
 22
       48.73810
 32
        0.91472
 13
        0.00000
 23
       48.73810
 33
        2.50000
999
PERIMETER_BOT_ZN_3:PERIMETER_BOT_ZN_3_WALL_WEST
  0
3DFACE
  8
PERIMETER_BOT_ZN_3
 62
 43
 10
        0.00000
 20
       48.73810
 30
        2.74400
 11
        0.00000
 21
       48.73810
 31
        0.00000
 12
        4.57320
 22
       44.16500
 32
        0.00000
 13
        4.57320
 23
       44.16500
 33
        2.74400
999
PERIMETER_BOT_ZN_3:CORE_BOT_ZN_5_WALL_NORTH-PPAUTOCREATEOTHER
  0
3DFACE
  8
PERIMETER_BOT_ZN_3
 62
 43
 10
        5.48760
 20
       44.16500
 30
        2.74400
 11
        5.48760
 21
       44.16500
 31
        0.00000
 12
       68.53400
 22
       44.16500
 32
        0.00000
 13
       68.53400
 23
       44.16500
 33
        2.74400
999
PERIMETER_BOT_ZN_3:PERIMETER_BOT_ZN_2_WALL_NORTH-PPAUTOCREATEOTHER
  0
3DFACE
  8
PERIMETER_BOT_ZN_3
 62
 43
 10
       68.53400
 20
       44.16500
 30
        2.74400
 11
       68.53400
 21
       44.16500
 31
        0.00000
 12
       73.10720
 22
       48.73810
 32
        0.00000
 13
       73.10720
 23
       48.73810
 33
        2.74400
999
PERIMETER_BOT_ZN_3:DATACENTER_BOT_ZN_6_WALL_NORTH-PPAUTOCREATEOTHER
  0
3DFACE
  8
PERIMETER_BOT_ZN_3
 62
 43
 10
        4.57320
 20
       44.16500
 30
        2.74400
 11
        4.57320
 21
       44.16500
 31
        0.00000
 12
        5.48760
 22
       44.16500
 32
        0.00000
 13
        5.48760
 23
       44.16500
 33
        2.74400
999
PERIMETER_BOT_ZN_3:PERIMETER_BOT_ZN_3_FLOOR
  0
3DFACE
  8
PERIMETER_BOT_ZN_3
 62
  8
 10
       73.10720
 20
       48.73810
 30
        0.00000
 11
       68.53400
 21
       44.16500
 31
        0.00000
 12
       16.07820
 22
       44.16500
 32
        0.00000
 13
       16.07820
 23
       48.73810
 33
        0.00000
999
PERIMETER_BOT_ZN_3:DATACENTER_BASEMENT_ZN_6_CEILING-PERIMETER_BOT_ZN_3-PPAUTOCREATEOTHER
  0
3DFACE
  8
PERIMETER_BOT_ZN_3
 62
  8
 10
       16.07820
 20
       48.73810
 30
        0.00000
 11
       16.07820
 21
       44.16500
 31
        0.00000
 12
        4.57320
 22
       44.16500
 32
        0.00000
 13
        0.00000
 23
       48.73810
 33
        0.00000
999
PERIMETER_BOT_ZN_3:PERIMETER_BOT_ZN_3_CEILING
  0
3DFACE
  8
PERIMETER_BOT_ZN_3
 62
 15
 10
        0.00000
 20
       48.73810
 30
        2.74400
 11
        4.57320
 21
       44.16500
 31
        2.74400
 12
       68.53400
 22
       44.16500
 32
        2.74400
 13
       73.10720
 23
       48.73810
 33
        2.74400
999
PERIMETER_BOT_ZN_2:PERIMETER_BOT_ZN_2_WALL_EAST
  0
3DFACE
  8
PERIMETER_BOT_ZN_2
 62
 43
 10
       73.10720
 20
        0.00000
 30
        2.74400
 11
       73.10720
 21
        0.00000
 31
        0.00000
 12
       73.10720
 22
       48.73810
 32
        0.00000
 13
       73.10720
 23
       48.73810
 33
        2.74400
999
PERIMETER_BOT_ZN_2:PERIMETER_BOT_ZN_2_WALL_EAST_WINDOW
  0
3DFACE
  8
PERIMETER_BOT_ZN_2
 62
143
 10
       73.10720
 20
        0.00000
 30
        2.50000
 11
       73.10720
 21
        0.00000
 31
        0.91472
 12
       73.10720
 22
       48.73800
 32
        0.91472
 13
       73.10720
 23
       48.73800
 33
        2.50000
999
PERIMETER_BOT_ZN_2:PERIMETER_BOT_ZN_2_WALL_NORTH
  0
3DFACE
  8
PERIMETER_BOT_ZN_2
 62
 43
 10
       73.10720
 20
       48.73810
 30
        2.74400
 11
       73.10720
 21
       48.73810
 31
        0.00000
 12
       68.53400
 22
       44.16500
 32
        0.00000
 13
       68.53400
 23
       44.16500
 33
        2.74400
999
PERIMETER_BOT_ZN_2:CORE_BOT_ZN_5_WALL_EAST-PPAUTOCREATEOTHER
  0
3DFACE
  8
PERIMETER_BOT_ZN_2
 62
 43
 10
       68.53400
 20
       44.16500
 30
        2.74400
 11
       68.53400
 21
       44.16500
 31
        0.00000
 12
       68.53400
 22
        4.57320
 32
        0.00000
 13
       68.53400
 23
        4.57320
 33
        2.74400
999
PERIMETER_BOT_ZN_2:PERIMETER_BOT_ZN_1_WALL_EAST-PPAUTOCREATEOTHER
  0
3DFACE
  8
PERIMETER_BOT_ZN_2
 62
 43
 10
       68.53400
 20
        4.57320
 30
        2.74400
 11
       68.53400
 21
        4.57320
 31
        0.00000
 12
       73.10720
 22
        0.00000
 32
        0.00000
 13
       73.10720
 23
        0.00000
 33
        2.74400
999
PERIMETER_BOT_ZN_2:PERIMETER_BOT_ZN_2_FLOOR
  0
3DFACE
  8
PERIMETER_BOT_ZN_2
 62
  8
 10
       73.10720
 20
       48.73810
 30
        0.00000
 11
       73.10720
 21
        0.00000
 31
        0.00000
 12
       68.53400
 22
        4.57320
 32
        0.00000
 13
       68.53400
 23
       44.16500
 33
        0.00000
999
PERIMETER_BOT_ZN_2:PERIMETER_BOT_ZN_2_CEILING
  0
3DFACE
  8
PERIMETER_BOT_ZN_2
 62
 15
 10
       68.53400
 20
       44.16500
 30
        2.74400
 11
       68.53400
 21
        4.57320
 31
        2.74400
 12
       73.10720
 22
        0.00000
 32
        2.74400
 13
       73.10720
 23
       48.73810
 33
        2.74400
999
PERIMETER_BOT_ZN_1:PERIMETER_BOT_ZN_1_WALL_SOUTH
  0
3DFACE
  8
PERIMETER_BOT_ZN_1
 62
 43
 10
        0.00000
 20
        0.00000
 30
        2.74400
 11
        0.00000
 21
        0.00000
 31
        0.00000
 12
       73.10720
 22
        0.00000
 32
        0.00000
 13
       73.10720
 23
        0.00000
 33
        2.74400
999
PERIMETER_BOT_ZN_1:PERIMETER_BOT_ZN_1_WALL_SOUTH_WINDOW
  0
3DFACE
  8
PERIMETER_BOT_ZN_1
 62
143
 10
        0.00000
 20
        0.00000
 30
        2.50000
 11
        0.00000
 21
        0.00000
 31
        0.91472
 12
       73.10700
 22
        0.00000
 32
        0.91472
 13
       73.10700
 23
        0.00000
 33
        2.50000
999
PERIMETER_BOT_ZN_1:PERIMETER_BOT_ZN_1_WALL_EAST
  0
3DFACE
  8
PERIMETER_BOT_ZN_1
 62
 43
 10
       73.10720
 20
        0.00000
 30
        2.74400
 11
       73.10720
 21
        0.00000
 31
        0.00000
 12
       68.53400
 22
        4.57320
 32
        0.00000
 13
       68.53400
 23
        4.57320
 33
        2.74400
999
PERIMETER_BOT_ZN_1:DATACENTER_BOT_ZN_6_WALL_SOUTH-PPAUTOCREATEOTHER
  0
3DFACE
  8
PERIMETER_BOT_ZN_1
 62
 43
 10
        5.48760
 20
        4.57320
 30
        2.74400
 11
        5.48760
 21
        4.57320
 31
        0.00000
 12
        4.57320
 22
        4.57320
 32
        0.00000
 13
        4.57320
 23
        4.57320
 33
        2.74400
999
PERIMETER_BOT_ZN_1:PERIMETER_BOT_ZN_4_WALL_SOUTH-PPAUTOCREATEOTHER
  0
3DFACE
  8
PERIMETER_BOT_ZN_1
 62
 43
 10
        4.57320
 20
        4.57320
 30
        2.74400
 11
        4.57320
 21
        4.57320
 31
        0.00000
 12
        0.00000
 22
        0.00000
 32
        0.00000
 13
        0.00000
 23
        0.00000
 33
        2.74400
999
PERIMETER_BOT_ZN_1:CORE_BOT_ZN_5_WALL_SOUTH-PPAUTOCREATEOTHER
  0
3DFACE
  8
PERIMETER_BOT_ZN_1
 62
 43
 10
       68.53400
 20
        4.57320
 30
        2.74400
 11
       68.53400
 21
        4.57320
 31
        0.00000
 12
        5.48760
 22
        4.57320
 32
        0.00000
 13
        5.48760
 23
        4.57320
 33
        2.74400
999
PERIMETER_BOT_ZN_1:DATACENTER_BASEMENT_ZN_6-PERIMETER_BOT_ZN_1-PPAUTOCREATEOTHER
  0
3DFACE
  8
PERIMETER_BOT_ZN_1
 62
  8
 10
       16.07820
 20
        4.57320
 30
        0.00000
 11
       16.07820
 21
        0.00000
 31
        0.00000
 12
        0.00000
 22
        0.00000
 32
        0.00000
 13
        4.57320
 23
        4.57320
 33
        0.00000
999
PERIMETER_BOT_ZN_1:PERIMETER_BOT_ZN_1_FLOOR
  0
3DFACE
  8
PERIMETER_BOT_ZN_1
 62
  8
 10
       68.53400
 20
        4.57320
 30
        0.00000
 11
       73.10720
 21
        0.00000
 31
        0.00000
 12
       16.07820
 22
        0.00000
 32
        0.00000
 13
       16.07820
 23
        4.57320
 33
        0.00000
999
PERIMETER_BOT_ZN_1:PERIMETER_BOT_ZN_1_CEILING
  0
3DFACE
  8
PERIMETER_BOT_ZN_1
 62
 15
 10
        4.57320
 20
        4.57320
 30
        2.74400
 11
        0.00000
 21
        0.00000
 31
        2.74400
 12
       73.10720
 22
        0.00000
 32
        2.74400
 13
       68.53400
 23
        4.57320
 33
        2.74400
999
PERIMETER_BOT_ZN_4:PERIMETER_BOT_ZN_4_WALL_WEST
  0
3DFACE
  8
PERIMETER_BOT_ZN_4
 62
 43
 10
        0.00000
 20
       48.73810
 30
        2.74400
 11
        0.00000
 21
       48.73810
 31
        0.00000
 12
        0.00000
 22
        0.00000
 32
        0.00000
 13
        0.00000
 23
        0.00000
 33
        2.74400
999
PERIMETER_BOT_ZN_4:PERIMETER_BOT_ZN_4_WALL_WEST_WINDOW
  0
3DFACE
  8
PERIMETER_BOT_ZN_4
 62
143
 10
        0.00000
 20
       48.73800
 30
        2.50000
 11
        0.00000
 21
       48.73800
 31
        0.91472
 12
        0.00000
 22
        0.00000
 32
        0.91472
 13
        0.00000
 23
        0.00000
 33
        2.50000
999
PERIMETER_BOT_ZN_4:PERIMETER_BOT_ZN_4_WALL_SOUTH
  0
3DFACE
  8
PERIMETER_BOT_ZN_4
 62
 43
 10
        0.00000
 20
        0.00000
 30
        2.74400
 11
        0.00000
 21
        0.00000
 31
        0.00000
 12
        4.57320
 22
        4.57320
 32
        0.00000
 13
        4.57320
 23
        4.57320
 33
        2.74400
999
PERIMETER_BOT_ZN_4:DATACENTER_BOT_ZN_6_WALL_WEST-PPAUTOCREATEOTHER
  0
3DFACE
  8
PERIMETER_BOT_ZN_4
 62
 43
 10
        4.57320
 20
        4.57320
 30
        2.74400
 11
        4.57320
 21
        4.57320
 31
        0.00000
 12
        4.57320
 22
       44.16500
 32
        0.00000
 13
        4.57320
 23
       44.16500
 33
        2.74400
999
PERIMETER_BOT_ZN_4:PERIMETER_BOT_ZN_3_WALL_WEST-PPAUTOCREATEOTHER
  0
3DFACE
  8
PERIMETER_BOT_ZN_4
 62
 43
 10
        4.57320
 20
       44.16500
 30
        2.74400
 11
        4.57320
 21
       44.16500
 31
        0.00000
 12
        0.00000
 22
       48.73810
 32
        0.00000
 13
        0.00000
 23
       48.73810
 33
        2.74400
999
PERIMETER_BOT_ZN_4:PERIMETER_BOT_ZN_4_FLOOR
  0
3DFACE
  8
PERIMETER_BOT_ZN_4
 62
  8
 10
        4.57320
 20
       44.16500
 30
        0.00000
 11
        4.57320
 21
        4.57320
 31
        0.00000
 12
        0.00000
 22
        0.00000
 32
        0.00000
 13
        0.00000
 23
       48.73810
 33
        0.00000
999
PERIMETER_BOT_ZN_4:PERIMETER_BOT_ZN_4_CEILING
  0
3DFACE
  8
PERIMETER_BOT_ZN_4
 62
 15
 10
        0.00000
 20
       48.73810
 30
        2.74400
 11
        0.00000
 21
        0.00000
 31
        2.74400
 12
        4.57320
 22
        4.57320
 32
        2.74400
 13
        4.57320
 23
       44.16500
 33
        2.74400
999
PERIMETER_MID_ZN_3:PERIMETER_MID_ZN_3_WALL_NORTH
  0
3DFACE
  8
PERIMETER_MID_ZN_3
 62
 43
 10
       73.10720
 20
       48.73810
 30
       19.51230
 11
       73.10720
 21
       48.73810
 31
       16.76830
 12
        0.00000
 22
       48.73810
 32
       16.76830
 13
        0.00000
 23
       48.73810
 33
       19.51230
999
PERIMETER_MID_ZN_3:PERIMETER_MID_ZN_3_WALL_NORTH_WINDOW
  0
3DFACE
  8
PERIMETER_MID_ZN_3
 62
143
 10
       73.10700
 20
       48.73810
 30
       19.26830
 11
       73.10700
 21
       48.73810
 31
       17.68302
 12
        0.00000
 22
       48.73810
 32
       17.68302
 13
        0.00000
 23
       48.73810
 33
       19.26830
999
PERIMETER_MID_ZN_3:PERIMETER_MID_ZN_3_WALL_WEST
  0
3DFACE
  8
PERIMETER_MID_ZN_3
 62
 43
 10
        0.00000
 20
       48.73810
 30
       19.51230
 11
        0.00000
 21
       48.73810
 31
       16.76830
 12
        4.57320
 22
       44.16500
 32
       16.76830
 13
        4.57320
 23
       44.16500
 33
       19.51230
999
PERIMETER_MID_ZN_3:CORE_MID_ZN_5_WALL_NORTH-PPAUTOCREATEOTHER
  0
3DFACE
  8
PERIMETER_MID_ZN_3
 62
 43
 10
        5.48760
 20
       44.16500
 30
       19.51230
 11
        5.48760
 21
       44.16500
 31
       16.76830
 12
       68.53400
 22
       44.16500
 32
       16.76830
 13
       68.53400
 23
       44.16500
 33
       19.51230
999
PERIMETER_MID_ZN_3:PERIMETER_MID_ZN_2_WALL_NORTH-PPAUTOCREATEOTHER
  0
3DFACE
  8
PERIMETER_MID_ZN_3
 62
 43
 10
       68.53400
 20
       44.16500
 30
       19.51230
 11
       68.53400
 21
       44.16500
 31
       16.76830
 12
       73.10720
 22
       48.73810
 32
       16.76830
 13
       73.10720
 23
       48.73810
 33
       19.51230
999
PERIMETER_MID_ZN_3:DATACENTER_MID_ZN_6_WALL_NORTH-PPAUTOCREATEOTHER
  0
3DFACE
  8
PERIMETER_MID_ZN_3
 62
 43
 10
        4.57320
 20
       44.16500
 30
       19.51230
 11
        4.57320
 21
       44.16500
 31
       16.76830
 12
        5.48760
 22
       44.16500
 32
       16.76830
 13
        5.48760
 23
       44.16500
 33
       19.51230
999
PERIMETER_MID_ZN_3:PERIMETER_MID_ZN_3_FLOOR
  0
3DFACE
  8
PERIMETER_MID_ZN_3
 62
  8
 10
       73.10720
 20
       48.73810
 30
       16.76830
 11
       68.53400
 21
       44.16500
 31
       16.76830
 12
        4.57320
 22
       44.16500
 32
       16.76830
 13
        0.00000
 23
       48.73810
 33
       16.76830
999
PERIMETER_MID_ZN_3:PERIMETER_MID_ZN_3_CEILING
  0
3DFACE
  8
PERIMETER_MID_ZN_3
 62
 15
 10
        0.00000
 20
       48.73810
 30
       19.51230
 11
        4.57320
 21
       44.16500
 31
       19.51230
 12
       68.53400
 22
       44.16500
 32
       19.51230
 13
       73.10720
 23
       48.73810
 33
       19.51230
999
PERIMETER_MID_ZN_2:PERIMETER_MID_ZN_2_WALL_EAST
  0
3DFACE
  8
PERIMETER_MID_ZN_2
 62
 43
 10
       73.10720
 20
        0.00000
 30
       19.51230
 11
       73.10720
 21
        0.00000
 31
       16.76830
 12
       73.10720
 22
       48.73810
 32
       16.76830
 13
       73.10720
 23
       48.73810
 33
       19.51230
999
PERIMETER_MID_ZN_2:PERIMETER_MID_ZN_2_WALL_EAST_WINDOW
  0
3DFACE
  8
PERIMETER_MID_ZN_2
 62
143
 10
       73.10720
 20
        0.00000
 30
       19.26830
 11
       73.10720
 21
        0.00000
 31
       17.68302
 12
       73.10720
 22
       48.73800
 32
       17.68302
 13
       73.10720
 23
       48.73800
 33
       19.26830
999
PERIMETER_MID_ZN_2:PERIMETER_MID_ZN_2_WALL_NORTH
  0
3DFACE
  8
PERIMETER_MID_ZN_2
 62
 43
 10
       73.10720
 20
       48.73810
 30
       19.51230
 11
       73.10720
 21
       48.73810
 31
       16.76830
 12
       68.53400
 22
       44.16500
 32
       16.76830
 13
       68.53400
 23
       44.16500
 33
       19.51230
999
PERIMETER_MID_ZN_2:CORE_MID_ZN_5_WALL_EAST-PPAUTOCREATEOTHER
  0
3DFACE
  8
PERIMETER_MID_ZN_2
 62
 43
 10
       68.53400
 20
       44.16500
 30
       19.51230
 11
       68.53400
 21
       44.16500
 31
       16.76830
 12
       68.53400
 22
        4.57320
 32
       16.76830
 13
       68.53400
 23
        4.57320
 33
       19.51230
999
PERIMETER_MID_ZN_2:PERIMETER_MID_ZN_1_WALL_EAST-PPAUTOCREATEOTHER
  0
3DFACE
  8
PERIMETER_MID_ZN_2
 62
 43
 10
       68.53400
 20
        4.57320
 30
       19.51230
 11
       68.53400
 21
        4.57320
 31
       16.76830
 12
       73.10720
 22
        0.00000
 32
       16.76830
 13
       73.10720
 23
        0.00000
 33
       19.51230
999
PERIMETER_MID_ZN_2:PERIMETER_MID_ZN_2_FLOOR
  0
3DFACE
  8
PERIMETER_MID_ZN_2
 62
  8
 10
       73.10720
 20
       48.73810
 30
       16.76830
 11
       73.10720
 21
        0.00000
 31
       16.76830
 12
       68.53400
 22
        4.57320
 32
       16.76830
 13
       68.53400
 23
       44.16500
 33
       16.76830
999
PERIMETER_MID_ZN_2:PERIMETER_MID_ZN_2_CEILING
  0
3DFACE
  8
PERIMETER_MID_ZN_2
 62
 15
 10
       68.53400
 20
       44.16500
 30
       19.51230
 11
       68.53400
 21
        4.57320
 31
       19.51230
 12
       73.10720
 22
        0.00000
 32
       19.51230
 13
       73.10720
 23
       48.73810
 33
       19.51230
999
PERIMETER_MID_ZN_1:PERIMETER_MID_ZN_1_WALL_EAST
  0
3DFACE
  8
PERIMETER_MID_ZN_1
 62
 43
 10
       73.10720
 20
        0.00000
 30
       19.51230
 11
       73.10720
 21
        0.00000
 31
       16.76830
 12
       68.53400
 22
        4.57320
 32
       16.76830
 13
       68.53400
 23
        4.57320
 33
       19.51230
999
PERIMETER_MID_ZN_1:PERIMETER_MID_ZN_1_WALL_SOUTH
  0
3DFACE
  8
PERIMETER_MID_ZN_1
 62
 43
 10
        0.00000
 20
        0.00000
 30
       19.51230
 11
        0.00000
 21
        0.00000
 31
       16.76830
 12
       73.10720
 22
        0.00000
 32
       16.76830
 13
       73.10720
 23
        0.00000
 33
       19.51230
999
PERIMETER_MID_ZN_1:PERIMETER_MID_ZN_1_WALL_SOUTH_WINDOW
  0
3DFACE
  8
PERIMETER_MID_ZN_1
 62
143
 10
        0.00000
 20
        0.00000
 30
       19.26830
 11
        0.00000
 21
        0.00000
 31
       17.68302
 12
       73.10700
 22
        0.00000
 32
       17.68302
 13
       73.10700
 23
        0.00000
 33
       19.26830
999
PERIMETER_MID_ZN_1:DATACENTER_MID_ZN_6_WALL_SOUTH-PPAUTOCREATEOTHER
  0
3DFACE
  8
PERIMETER_MID_ZN_1
 62
 43
 10
        5.48760
 20
        4.57320
 30
       19.51230
 11
        5.48760
 21
        4.57320
 31
       16.76830
 12
        4.57320
 22
        4.57320
 32
       16.76830
 13
        4.57320
 23
        4.57320
 33
       19.51230
999
PERIMETER_MID_ZN_1:PERIMETER_MID_ZN_4_WALL_SOUTH-PPAUTOCREATEOTHER
  0
3DFACE
  8
PERIMETER_MID_ZN_1
 62
 43
 10
        4.57320
 20
        4.57320
 30
       19.51230
 11
        4.57320
 21
        4.57320
 31
       16.76830
 12
        0.00000
 22
        0.00000
 32
       16.76830
 13
        0.00000
 23
        0.00000
 33
       19.51230
999
PERIMETER_MID_ZN_1:CORE_MID_ZN_5_WALL_SOUTH-PPAUTOCREATEOTHER
  0
3DFACE
  8
PERIMETER_MID_ZN_1
 62
 43
 10
       68.53400
 20
        4.57320
 30
       19.51230
 11
       68.53400
 21
        4.57320
 31
       16.76830
 12
        5.48760
 22
        4.57320
 32
       16.76830
 13
        5.48760
 23
        4.57320
 33
       19.51230
999
PERIMETER_MID_ZN_1:PERIMETER_MID_ZN_1_FLOOR
  0
3DFACE
  8
PERIMETER_MID_ZN_1
 62
  8
 10
       68.53400
 20
        4.57320
 30
       16.76830
 11
       73.10720
 21
        0.00000
 31
       16.76830
 12
        0.00000
 22
        0.00000
 32
       16.76830
 13
        4.57320
 23
        4.57320
 33
       16.76830
999
PERIMETER_MID_ZN_1:PERIMETER_MID_ZN_1_CEILING
  0
3DFACE
  8
PERIMETER_MID_ZN_1
 62
 15
 10
        4.57320
 20
        4.57320
 30
       19.51230
 11
        0.00000
 21
        0.00000
 31
       19.51230
 12
       73.10720
 22
        0.00000
 32
       19.51230
 13
       68.53400
 23
        4.57320
 33
       19.51230
999
PERIMETER_MID_ZN_4:PERIMETER_MID_ZN_4_WALL_WEST
  0
3DFACE
  8
PERIMETER_MID_ZN_4
 62
 43
 10
        0.00000
 20
       48.73810
 30
       19.51230
 11
        0.00000
 21
       48.73810
 31
       16.76830
 12
        0.00000
 22
        0.00000
 32
       16.76830
 13
        0.00000
 23
        0.00000
 33
       19.51230
999
PERIMETER_MID_ZN_4:PERIMETER_MID_ZN_4_WALL_WEST_WINDOW
  0
3DFACE
  8
PERIMETER_MID_ZN_4
 62
143
 10
        0.00000
 20
       48.73800
 30
       19.26830
 11
        0.00000
 21
       48.73800
 31
       17.68302
 12
        0.00000
 22
        0.00000
 32
       17.68302
 13
        0.00000
 23
        0.00000
 33
       19.26830
999
PERIMETER_MID_ZN_4:PERIMETER_MID_ZN_4_WALL_SOUTH
  0
3DFACE
  8
PERIMETER_MID_ZN_4
 62
 43
 10
        0.00000
 20
        0.00000
 30
       19.51230
 11
        0.00000
 21
        0.00000
 31
       16.76830
 12
        4.57320
 22
        4.57320
 32
       16.76830
 13
        4.57320
 23
        4.57320
 33
       19.51230
999
PERIMETER_MID_ZN_4:DATACENTER_MID_ZN_6_WALL_WEST-PPAUTOCREATEOTHER
  0
3DFACE
  8
PERIMETER_MID_ZN_4
 62
 43
 10
        4.57320
 20
        4.57320
 30
       19.51230
 11
        4.57320
 21
        4.57320
 31
       16.76830
 12
        4.57320
 22
       44.16500
 32
       16.76830
 13
        4.57320
 23
       44.16500
 33
       19.51230
999
PERIMETER_MID_ZN_4:PERIMETER_MID_ZN_3_WALL_WEST-PPAUTOCREATEOTHER
  0
3DFACE
  8
PERIMETER_MID_ZN_4
 62
 43
 10
        4.57320
 20
       44.16500
 30
       19.51230
 11
        4.57320
 21
       44.16500
 31
       16.76830
 12
        0.00000
 22
       48.73810
 32
       16.76830
 13
        0.00000
 23
       48.73810
 33
       19.51230
999
PERIMETER_MID_ZN_4:PERIMETER_MID_ZN_4_FLOOR
  0
3DFACE
  8
PERIMETER_MID_ZN_4
 62
  8
 10
        4.57320
 20
       44.16500
 30
       16.76830
 11
        4.57320
 21
        4.57320
 31
       16.76830
 12
        0.00000
 22
        0.00000
 32
       16.76830
 13
        0.00000
 23
       48.73810
 33
       16.76830
999
PERIMETER_MID_ZN_4:PERIMETER_MID_ZN_4_CEILING
  0
3DFACE
  8
PERIMETER_MID_ZN_4
 62
 15
 10
        0.00000
 20
       48.73810
 30
       19.51230
 11
        0.00000
 21
        0.00000
 31
       19.51230
 12
        4.57320
 22
        4.57320
 32
       19.51230
 13
        4.57320
 23
       44.16500
 33
       19.51230
999
PERIMETER_TOP_ZN_3:PERIMETER_TOP_ZN_3_WALL_NORTH
  0
3DFACE
  8
PERIMETER_TOP_ZN_3
 62
 43
 10
       73.10720
 20
       48.73810
 30
       36.28060
 11
       73.10720
 21
       48.73810
 31
       33.53660
 12
        0.00000
 22
       48.73810
 32
       33.53660
 13
        0.00000
 23
       48.73810
 33
       36.28060
999
PERIMETER_TOP_ZN_3:PERIMETER_TOP_ZN_3_WALL_NORTH_WINDOW
  0
3DFACE
  8
PERIMETER_TOP_ZN_3
 62
143
 10
       73.10700
 20
       48.73810
 30
       36.03660
 11
       73.10700
 21
       48.73810
 31
       34.45132
 12
        0.00000
 22
       48.73810
 32
       34.45132
 13
        0.00000
 23
       48.73810
 33
       36.03660
999
PERIMETER_TOP_ZN_3:PERIMETER_TOP_ZN_3_WALL_WEST
  0
3DFACE
  8
PERIMETER_TOP_ZN_3
 62
 43
 10
        0.00000
 20
       48.73810
 30
       36.28060
 11
        0.00000
 21
       48.73810
 31
       33.53660
 12
        4.57320
 22
       44.16500
 32
       33.53660
 13
        4.57320
 23
       44.16500
 33
       36.28060
999
PERIMETER_TOP_ZN_3:CORE_TOP_ZN_5_WALL_NORTH-PPAUTOCREATEOTHER
  0
3DFACE
  8
PERIMETER_TOP_ZN_3
 62
 43
 10
        5.48760
 20
       44.16500
 30
       36.28060
 11
        5.48760
 21
       44.16500
 31
       33.53660
 12
       68.53400
 22
       44.16500
 32
       33.53660
 13
       68.53400
 23
       44.16500
 33
       36.28060
999
PERIMETER_TOP_ZN_3:PERIMETER_TOP_ZN_2_WALL_NORTH-PPAUTOCREATEOTHER
  0
3DFACE
  8
PERIMETER_TOP_ZN_3
 62
 43
 10
       68.53400
 20
       44.16500
 30
       36.28060
 11
       68.53400
 21
       44.16500
 31
       33.53660
 12
       73.10720
 22
       48.73810
 32
       33.53660
 13
       73.10720
 23
       48.73810
 33
       36.28060
999
PERIMETER_TOP_ZN_3:DATACENTER_TOP_ZN_6_WALL_NORTH-PPAUTOCREATEOTHER
  0
3DFACE
  8
PERIMETER_TOP_ZN_3
 62
 43
 10
        4.57320
 20
       44.16500
 30
       36.28060
 11
        4.57320
 21
       44.16500
 31
       33.53660
 12
        5.48760
 22
       44.16500
 32
       33.53660
 13
        5.48760
 23
       44.16500
 33
       36.28060
999
PERIMETER_TOP_ZN_3:PERIMETER_TOP_ZN_3_FLOOR
  0
3DFACE
  8
PERIMETER_TOP_ZN_3
 62
  8
 10
       73.10720
 20
       48.73810
 30
       33.53660
 11
       68.53400
 21
       44.16500
 31
       33.53660
 12
        4.57320
 22
       44.16500
 32
       33.53660
 13
        0.00000
 23
       48.73810
 33
       33.53660
999
PERIMETER_TOP_ZN_3:PERIMETER_TOP_ZN_3_CEILING
  0
3DFACE
  8
PERIMETER_TOP_ZN_3
 62
 15
 10
        0.00000
 20
       48.73810
 30
       36.28060
 11
        4.57320
 21
       44.16500
 31
       36.28060
 12
       68.53400
 22
       44.16500
 32
       36.28060
 13
       73.10720
 23
       48.73810
 33
       36.28060
999
PERIMETER_TOP_ZN_2:PERIMETER_TOP_ZN_2_WALL_EAST
  0
3DFACE
  8
PERIMETER_TOP_ZN_2
 62
 43
 10
       73.10720
 20
        0.00000
 30
       36.28060
 11
       73.10720
 21
        0.00000
 31
       33.53660
 12
       73.10720
 22
       48.73810
 32
       33.53660
 13
       73.10720
 23
       48.73810
 33
       36.28060
999
PERIMETER_TOP_ZN_2:PERIMETER_TOP_ZN_2_WALL_EAST_WINDOW
  0
3DFACE
  8
PERIMETER_TOP_ZN_2
 62
143
 10
       73.10720
 20
        0.00000
 30
       36.03660
 11
       73.10720
 21
        0.00000
 31
       34.45132
 12
       73.10720
 22
       48.73800
 32
       34.45132
 13
       73.10720
 23
       48.73800
 33
       36.03660
999
PERIMETER_TOP_ZN_2:PERIMETER_TOP_ZN_2_WALL_NORTH
  0
3DFACE
  8
PERIMETER_TOP_ZN_2
 62
 43
 10
       73.10720
 20
       48.73810
 30
       36.28060
 11
       73.10720
 21
       48.73810
 31
       33.53660
 12
       68.53400
 22
       44.16500
 32
       33.53660
 13
       68.53400
 23
       44.16500
 33
       36.28060
999
PERIMETER_TOP_ZN_2:CORE_TOP_ZN_5_WALL_EAST-PPAUTOCREATEOTHER
  0
3DFACE
  8
PERIMETER_TOP_ZN_2
 62
 43
 10
       68.53400
 20
       44.16500
 30
       36.28060
 11
       68.53400
 21
       44.16500
 31
       33.53660
 12
       68.53400
 22
        4.57320
 32
       33.53660
 13
       68.53400
 23
        4.57320
 33
       36.28060
999
PERIMETER_TOP_ZN_2:INT-PER3S-NE-PPAUTOCREATEOTHER
  0
3DFACE
  8
PERIMETER_TOP_ZN_2
 62
 43
 10
       68.53400
 20
        4.57320
 30
       36.28060
 11
       68.53400
 21
        4.57320
 31
       33.53660
 12
       73.10720
 22
        0.00000
 32
       33.53660
 13
       73.10720
 23
        0.00000
 33
       36.28060
999
PERIMETER_TOP_ZN_2:PERIMETER_TOP_ZN_2_FLOOR
  0
3DFACE
  8
PERIMETER_TOP_ZN_2
 62
  8
 10
       73.10720
 20
       48.73810
 30
       33.53660
 11
       73.10720
 21
        0.00000
 31
       33.53660
 12
       68.53400
 22
        4.57320
 32
       33.53660
 13
       68.53400
 23
       44.16500
 33
       33.53660
999
PERIMETER_TOP_ZN_2:PERIMETER_TOP_ZN_2_CEILING
  0
3DFACE
  8
PERIMETER_TOP_ZN_2
 62
 15
 10
       68.53400
 20
       44.16500
 30
       36.28060
 11
       68.53400
 21
        4.57320
 31
       36.28060
 12
       73.10720
 22
        0.00000
 32
       36.28060
 13
       73.10720
 23
       48.73810
 33
       36.28060
999
PERIMETER_TOP_ZN_1:PERIMETER_TOP_ZN_1_WALL_SOUTH
  0
3DFACE
  8
PERIMETER_TOP_ZN_1
 62
 43
 10
        0.00000
 20
        0.00000
 30
       36.28060
 11
        0.00000
 21
        0.00000
 31
       33.53660
 12
       73.10720
 22
        0.00000
 32
       33.53660
 13
       73.10720
 23
        0.00000
 33
       36.28060
999
PERIMETER_TOP_ZN_1:PERIMETER_TOP_ZN_1_WALL_SOUTH_WINDOW
  0
3DFACE
  8
PERIMETER_TOP_ZN_1
 62
143
 10
        0.00000
 20
        0.00000
 30
       36.03660
 11
        0.00000
 21
        0.00000
 31
       34.45132
 12
       73.10700
 22
        0.00000
 32
       34.45132
 13
       73.10700
 23
        0.00000
 33
       36.03660
999
PERIMETER_TOP_ZN_1:INT-PER3S-NE
  0
3DFACE
  8
PERIMETER_TOP_ZN_1
 62
 43
 10
       73.10720
 20
        0.00000
 30
       36.28060
 11
       73.10720
 21
        0.00000
 31
       33.53660
 12
       68.53400
 22
        4.57320
 32
       33.53660
 13
       68.53400
 23
        4.57320
 33
       36.28060
999
PERIMETER_TOP_ZN_1:DATACENTER_TOP_ZN_6_WALL_SOUTH-PPAUTOCREATEOTHER
  0
3DFACE
  8
PERIMETER_TOP_ZN_1
 62
 43
 10
        5.48760
 20
        4.57320
 30
       36.28060
 11
        5.48760
 21
        4.57320
 31
       33.53660
 12
        4.57320
 22
        4.57320
 32
       33.53660
 13
        4.57320
 23
        4.57320
 33
       36.28060
999
PERIMETER_TOP_ZN_1:PERIMETER_TOP_ZN_4_WALL_SOUTH-PPAUTOCREATEOTHER
  0
3DFACE
  8
PERIMETER_TOP_ZN_1
 62
 43
 10
        4.57320
 20
        4.57320
 30
       36.28060
 11
        4.57320
 21
        4.57320
 31
       33.53660
 12
        0.00000
 22
        0.00000
 32
       33.53660
 13
        0.00000
 23
        0.00000
 33
       36.28060
999
PERIMETER_TOP_ZN_1:CORE_TOP_ZN_5_WALL_SOUTH-PPAUTOCREATEOTHER
  0
3DFACE
  8
PERIMETER_TOP_ZN_1
 62
 43
 10
       68.53400
 20
        4.57320
 30
       36.28060
 11
       68.53400
 21
        4.57320
 31
       33.53660
 12
        5.48760
 22
        4.57320
 32
       33.53660
 13
        5.48760
 23
        4.57320
 33
       36.28060
999
PERIMETER_TOP_ZN_1:PERIMETER_TOP_ZN_1_FLOOR
  0
3DFACE
  8
PERIMETER_TOP_ZN_1
 62
  8
 10
       68.53400
 20
        4.57320
 30
       33.53660
 11
       73.10720
 21
        0.00000
 31
       33.53660
 12
        0.00000
 22
        0.00000
 32
       33.53660
 13
        4.57320
 23
        4.57320
 33
       33.53660
999
PERIMETER_TOP_ZN_1:PERIMETER_TOP_ZN_1_CEILING
  0
3DFACE
  8
PERIMETER_TOP_ZN_1
 62
 15
 10
        4.57320
 20
        4.57320
 30
       36.28060
 11
        0.00000
 21
        0.00000
 31
       36.28060
 12
       73.10720
 22
        0.00000
 32
       36.28060
 13
       68.53400
 23
        4.57320
 33
       36.28060
999
PERIMETER_TOP_ZN_4:PERIMETER_TOP_ZN_4_WALL_WEST
  0
3DFACE
  8
PERIMETER_TOP_ZN_4
 62
 43
 10
        0.00000
 20
       48.73810
 30
       36.28060
 11
        0.00000
 21
       48.73810
 31
       33.53660
 12
        0.00000
 22
        0.00000
 32
       33.53660
 13
        0.00000
 23
        0.00000
 33
       36.28060
999
PERIMETER_TOP_ZN_4:PERIMETER_TOP_ZN_4_WALL_WEST_WINDOW
  0
3DFACE
  8
PERIMETER_TOP_ZN_4
 62
143
 10
        0.00000
 20
       48.73800
 30
       36.03660
 11
        0.00000
 21
       48.73800
 31
       34.45132
 12
        0.00000
 22
        0.00000
 32
       34.45132
 13
        0.00000
 23
        0.00000
 33
       36.03660
999
PERIMETER_TOP_ZN_4:PERIMETER_TOP_ZN_4_WALL_SOUTH
  0
3DFACE
  8
PERIMETER_TOP_ZN_4
 62
 43
 10
        0.00000
 20
        0.00000
 30
       36.28060
 11
        0.00000
 21
        0.00000
 31
       33.53660
 12
        4.57320
 22
        4.57320
 32
       33.53660
 13
        4.57320
 23
        4.57320
 33
       36.28060
999
PERIMETER_TOP_ZN_4:DATACENTER_TOP_ZN_6_WALL_WEST-PPAUTOCREATEOTHER
  0
3DFACE
  8
PERIMETER_TOP_ZN_4
 62
 43
 10
        4.57320
 20
        4.57320
 30
       36.28060
 11
        4.57320
 21
        4.57320
 31
       33.53660
 12
        4.57320
 22
       44.16500
 32
       33.53660
 13
        4.57320
 23
       44.16500
 33
       36.28060
999
PERIMETER_TOP_ZN_4:PERIMETER_TOP_ZN_3_WALL_WEST-PPAUTOCREATEOTHER
  0
3DFACE
  8
PERIMETER_TOP_ZN_4
 62
 43
 10
        4.57320
 20
       44.16500
 30
       36.28060
 11
        4.57320
 21
       44.16500
 31
       33.53660
 12
        0.00000
 22
       48.73810
 32
       33.53660
 13
        0.00000
 23
       48.73810
 33
       36.28060
999
PERIMETER_TOP_ZN_4:PERIMETER_TOP_ZN_4_FLOOR
  0
3DFACE
  8
PERIMETER_TOP_ZN_4
 62
  8
 10
        4.57320
 20
       44.16500
 30
       33.53660
 11
        4.57320
 21
        4.57320
 31
       33.53660
 12
        0.00000
 22
        0.00000
 32
       33.53660
 13
        0.00000
 23
       48.73810
 33
       33.53660
999
PERIMETER_TOP_ZN_4:PERIMETER_TOP_ZN_4_CEILING
  0
3DFACE
  8
PERIMETER_TOP_ZN_4
 62
 15
 10
        0.00000
 20
       48.73810
 30
       36.28060
 11
        0.00000
 21
        0.00000
 31
       36.28060
 12
        4.57320
 22
        4.57320
 32
       36.28060
 13
        4.57320
 23
       44.16500
 33
       36.28060
999
GROUNDFLOOR_PLENUM:GROUNDFLOOR_PLENUM_WALL_NORTH
  0
3DFACE
  8
GROUNDFLOOR_PLENUM
 62
 43
 10
       73.10720
 20
       48.73810
 30
        3.96320
 11
       73.10720
 21
       48.73810
 31
        2.74400
 12
        0.00000
 22
       48.73810
 32
        2.74400
 13
        0.00000
 23
       48.73810
 33
        3.96320
999
GROUNDFLOOR_PLENUM:GROUNDFLOOR_PLENUM_WEST
  0
3DFACE
  8
GROUNDFLOOR_PLENUM
 62
 43
 10
        0.00000
 20
       48.73810
 30
        3.96320
 11
        0.00000
 21
       48.73810
 31
        2.74400
 12
        0.00000
 22
        0.00000
 32
        2.74400
 13
        0.00000
 23
        0.00000
 33
        3.96320
999
GROUNDFLOOR_PLENUM:GROUNDFLOOR_PLENUM_WALL_SOUTH
  0
3DFACE
  8
GROUNDFLOOR_PLENUM
 62
 43
 10
        0.00000
 20
        0.00000
 30
        3.96320
 11
        0.00000
 21
        0.00000
 31
        2.74400
 12
       73.10720
 22
        0.00000
 32
        2.74400
 13
       73.10720
 23
        0.00000
 33
        3.96320
999
GROUNDFLOOR_PLENUM:GROUNDFLOOR_PLENUM_WALL_EAST
  0
3DFACE
  8
GROUNDFLOOR_PLENUM
 62
 43
 10
       73.10720
 20
        0.00000
 30
        3.96320
 11
       73.10720
 21
        0.00000
 31
        2.74400
 12
       73.10720
 22
       48.73810
 32
        2.74400
 13
       73.10720
 23
       48.73810
 33
        3.96320
999
GROUNDFLOOR_PLENUM:iz-CORE_BOT_ZN_5_CEILING
  0
3DFACE
  8
GROUNDFLOOR_PLENUM
 62
  8
 10
       68.53400
 20
       44.16500
 30
        2.74400
 11
       68.53400
 21
        4.57320
 31
        2.74400
 12
        5.48760
 22
        4.57320
 32
        2.74400
 13
        5.48760
 23
       44.16500
 33
        2.74400
999
GROUNDFLOOR_PLENUM:iz-PERIMETER_BOT_ZN_3_CEILING
  0
3DFACE
  8
GROUNDFLOOR_PLENUM
 62
  8
 10
       73.10720
 20
       48.73810
 30
        2.74400
 11
       68.53400
 21
       44.16500
 31
        2.74400
 12
        4.57320
 22
       44.16500
 32
        2.74400
 13
        0.00000
 23
       48.73810
 33
        2.74400
999
GROUNDFLOOR_PLENUM:iz-PERIMETER_BOT_ZN_2_CEILING
  0
3DFACE
  8
GROUNDFLOOR_PLENUM
 62
  8
 10
       73.10720
 20
       48.73810
 30
        2.74400
 11
       73.10720
 21
        0.00000
 31
        2.74400
 12
       68.53400
 22
        4.57320
 32
        2.74400
 13
       68.53400
 23
       44.16500
 33
        2.74400
999
GROUNDFLOOR_PLENUM:iz-PERIMETER_BOT_ZN_1_CEILING
  0
3DFACE
  8
GROUNDFLOOR_PLENUM
 62
  8
 10
       68.53400
 20
        4.57320
 30
        2.74400
 11
       73.10720
 21
        0.00000
 31
        2.74400
 12
        0.00000
 22
        0.00000
 32
        2.74400
 13
        4.57320
 23
        4.57320
 33
        2.74400
999
GROUNDFLOOR_PLENUM:iz-PERIMETER_BOT_ZN_4_CEILING
  0
3DFACE
  8
GROUNDFLOOR_PLENUM
 62
  8
 10
        4.57320
 20
       44.16500
 30
        2.74400
 11
        4.57320
 21
        4.57320
 31
        2.74400
 12
        0.00000
 22
        0.00000
 32
        2.74400
 13
        0.00000
 23
       48.73810
 33
        2.74400
999
GROUNDFLOOR_PLENUM:iz-DATACENTER_BOT_ZN_6_CEILING
  0
3DFACE
  8
GROUNDFLOOR_PLENUM
 62
  8
 10
        5.48760
 20
       44.16500
 30
        2.74400
 11
        5.48760
 21
        4.57320
 31
        2.74400
 12
        4.57320
 22
        4.57320
 32
        2.74400
 13
        4.57320
 23
       44.16500
 33
        2.74400
999
GROUNDFLOOR_PLENUM:GROUNDFLOOR_PLENUM_CEILING
  0
3DFACE
  8
GROUNDFLOOR_PLENUM
 62
 15
 10
        0.00000
 20
       48.73810
 30
        3.96320
 11
        0.00000
 21
        0.00000
 31
        3.96320
 12
       73.10720
 22
        0.00000
 32
        3.96320
 13
       73.10720
 23
       48.73810
 33
        3.96320
999
MIDFLOOR_PLENUM:MIDFLOOR_PLENUM_WALL_NORTH
  0
3DFACE
  8
MIDFLOOR_PLENUM
 62
 43
 10
       73.10720
 20
       48.73810
 30
       20.73150
 11
       73.10720
 21
       48.73810
 31
       19.51230
 12
        0.00000
 22
       48.73810
 32
       19.51230
 13
        0.00000
 23
       48.73810
 33
       20.73150
999
MIDFLOOR_PLENUM:MIDFLOOR_PLENUM_WALL_WEST
  0
3DFACE
  8
MIDFLOOR_PLENUM
 62
 43
 10
        0.00000
 20
       48.73810
 30
       20.73150
 11
        0.00000
 21
       48.73810
 31
       19.51230
 12
        0.00000
 22
        0.00000
 32
       19.51230
 13
        0.00000
 23
        0.00000
 33
       20.73150
999
MIDFLOOR_PLENUM:MIDFLOOR_PLENUM_WALL_SOUTH
  0
3DFACE
  8
MIDFLOOR_PLENUM
 62
 43
 10
        0.00000
 20
        0.00000
 30
       20.73150
 11
        0.00000
 21
        0.00000
 31
       19.51230
 12
       73.10720
 22
        0.00000
 32
       19.51230
 13
       73.10720
 23
        0.00000
 33
       20.73150
999
MIDFLOOR_PLENUM:MIDFLOOR_PLENUM_WALL_EAST
  0
3DFACE
  8
MIDFLOOR_PLENUM
 62
 43
 10
       73.10720
 20
        0.00000
 30
       20.73150
 11
       73.10720
 21
        0.00000
 31
       19.51230
 12
       73.10720
 22
       48.73810
 32
       19.51230
 13
       73.10720
 23
       48.73810
 33
       20.73150
999
MIDFLOOR_PLENUM:iz-CORE_MID_ZN_5_CEILING
  0
3DFACE
  8
MIDFLOOR_PLENUM
 62
  8
 10
       68.53400
 20
       44.16500
 30
       19.51230
 11
       68.53400
 21
        4.57320
 31
       19.51230
 12
        5.48760
 22
        4.57320
 32
       19.51230
 13
        5.48760
 23
       44.16500
 33
       19.51230
999
MIDFLOOR_PLENUM:iz-PERIMETER_MID_ZN_3_CEILING
  0
3DFACE
  8
MIDFLOOR_PLENUM
 62
  8
 10
       73.10720
 20
       48.73810
 30
       19.51230
 11
       68.53400
 21
       44.16500
 31
       19.51230
 12
        4.57320
 22
       44.16500
 32
       19.51230
 13
        0.00000
 23
       48.73810
 33
       19.51230
999
MIDFLOOR_PLENUM:iz-PERIMETER_MID_ZN_2_CEILING
  0
3DFACE
  8
MIDFLOOR_PLENUM
 62
  8
 10
       73.10720
 20
       48.73810
 30
       19.51230
 11
       73.10720
 21
        0.00000
 31
       19.51230
 12
       68.53400
 22
        4.57320
 32
       19.51230
 13
       68.53400
 23
       44.16500
 33
       19.51230
999
MIDFLOOR_PLENUM:iz-PERIMETER_MID_ZN_1_CEILING
  0
3DFACE
  8
MIDFLOOR_PLENUM
 62
  8
 10
       68.53400
 20
        4.57320
 30
       19.51230
 11
       73.10720
 21
        0.00000
 31
       19.51230
 12
        0.00000
 22
        0.00000
 32
       19.51230
 13
        4.57320
 23
        4.57320
 33
       19.51230
999
MIDFLOOR_PLENUM:iz-PERIMETER_MID_ZN_4_CEILING
  0
3DFACE
  8
MIDFLOOR_PLENUM
 62
  8
 10
        4.57320
 20
       44.16500
 30
       19.51230
 11
        4.57320
 21
        4.57320
 31
       19.51230
 12
        0.00000
 22
        0.00000
 32
       19.51230
 13
        0.00000
 23
       48.73810
 33
       19.51230
999
MIDFLOOR_PLENUM:iz-DATACENTER_MID_ZN_6_CEILING
  0
3DFACE
  8
MIDFLOOR_PLENUM
 62
  8
 10
        5.48760
 20
       44.16500
 30
       19.51230
 11
        5.48760
 21
        4.57320
 31
       19.51230
 12
        4.57320
 22
        4.57320
 32
       19.51230
 13
        4.57320
 23
       44.16500
 33
       19.51230
999
MIDFLOOR_PLENUM:MIDFLOOR_PLENUM_CEILING
  0
3DFACE
  8
MIDFLOOR_PLENUM
 62
 15
 10
        0.00000
 20
       48.73810
 30
       20.73150
 11
        0.00000
 21
        0.00000
 31
       20.73150
 12
       73.10720
 22
        0.00000
 32
       20.73150
 13
       73.10720
 23
       48.73810
 33
       20.73150
999
TOPFLOOR_PLENUM:TOPFLOOR_PLENUM_WALL_NORTH
  0
3DFACE
  8
TOPFLOOR_PLENUM
 62
 43
 10
        0.00000
 20
        0.00000
 30
       37.49980
 11
        0.00000
 21
        0.00000
 31
       36.28060
 12
       73.10720
 22
        0.00000
 32
       36.28060
 13
       73.10720
 23
        0.00000
 33
       37.49980
999
TOPFLOOR_PLENUM:TOPFLOOR_PLENUM_WALL_EAST
  0
3DFACE
  8
TOPFLOOR_PLENUM
 62
 43
 10
       73.10720
 20
        0.00000
 30
       37.49980
 11
       73.10720
 21
        0.00000
 31
       36.28060
 12
       73.10720
 22
       48.73810
 32
       36.28060
 13
       73.10720
 23
       48.73810
 33
       37.49980
999
TOPFLOOR_PLENUM:TOPFLOOR_PLENUM_WALL_WEST
  0
3DFACE
  8
TOPFLOOR_PLENUM
 62
 43
 10
        0.00000
 20
       48.73810
 30
       37.49980
 11
        0.00000
 21
       48.73810
 31
       36.28060
 12
        0.00000
 22
        0.00000
 32
       36.28060
 13
        0.00000
 23
        0.00000
 33
       37.49980
999
TOPFLOOR_PLENUM:TOPFLOOR_PLENUM_WALL_SOUTH
  0
3DFACE
  8
TOPFLOOR_PLENUM
 62
 43
 10
       73.10720
 20
       48.73810
 30
       37.49980
 11
       73.10720
 21
       48.73810
 31
       36.28060
 12
        0.00000
 22
       48.73810
 32
       36.28060
 13
        0.00000
 23
       48.73810
 33
       37.49980
999
TOPFLOOR_PLENUM:iz-CORE_TOP_ZN_5_CEILING
  0
3DFACE
  8
TOPFLOOR_PLENUM
 62
  8
 10
       68.53400
 20
       44.16500
 30
       36.28060
 11
       68.53400
 21
        4.57320
 31
       36.28060
 12
        5.48760
 22
        4.57320
 32
       36.28060
 13
        5.48760
 23
       44.16500
 33
       36.28060
999
TOPFLOOR_PLENUM:iz-PERIMETER_TOP_ZN_3_CEILING
  0
3DFACE
  8
TOPFLOOR_PLENUM
 62
  8
 10
       73.10720
 20
       48.73810
 30
       36.28060
 11
       68.53400
 21
       44.16500
 31
       36.28060
 12
        4.57320
 22
       44.16500
 32
       36.28060
 13
        0.00000
 23
       48.73810
 33
       36.28060
999
TOPFLOOR_PLENUM:iz-PERIMETER_TOP_ZN_2_CEILING
  0
3DFACE
  8
TOPFLOOR_PLENUM
 62
  8
 10
       73.10720
 20
       48.73810
 30
       36.28060
 11
       73.10720
 21
        0.00000
 31
       36.28060
 12
       68.53400
 22
        4.57320
 32
       36.28060
 13
       68.53400
 23
       44.16500
 33
       36.28060
999
TOPFLOOR_PLENUM:iz-PERIMETER_TOP_ZN_1_CEILING
  0
3DFACE
  8
TOPFLOOR_PLENUM
 62
  8
 10
       68.53400
 20
        4.57320
 30
       36.28060
 11
       73.10720
 21
        0.00000
 31
       36.28060
 12
        0.00000
 22
        0.00000
 32
       36.28060
 13
        4.57320
 23
        4.57320
 33
       36.28060
999
TOPFLOOR_PLENUM:iz-PERIMETER_TOP_ZN_4_CEILING
  0
3DFACE
  8
TOPFLOOR_PLENUM
 62
  8
 10
        4.57320
 20
       44.16500
 30
       36.28060
 11
        4.57320
 21
        4.57320
 31
       36.28060
 12
        0.00000
 22
        0.00000
 32
       36.28060
 13
        0.00000
 23
       48.73810
 33
       36.28060
999
TOPFLOOR_PLENUM:iz-DATACENTER_TOP_ZN_6_CEILING
  0
3DFACE
  8
TOPFLOOR_PLENUM
 62
  8
 10
        5.48760
 20
       44.16500
 30
       36.28060
 11
        5.48760
 21
        4.57320
 31
       36.28060
 12
        4.57320
 22
        4.57320
 32
       36.28060
 13
        4.57320
 23
       44.16500
 33
       36.28060
999
TOPFLOOR_PLENUM:BUILDING_ROOF
  0
3DFACE
  8
TOPFLOOR_PLENUM
 62
 15
 10
        0.00000
 20
       48.73810
 30
       37.49980
 11
        0.00000
 21
        0.00000
 31
       37.49980
 12
       73.10720
 22
        0.00000
 32
       37.49980
 13
       73.10720
 23
       48.73810
 33
       37.49980
999
DATACENTER_BOT_ZN_6:DATACENTER_BOT_ZN_6_WALL_NORTH
  0
3DFACE
  8
DATACENTER_BOT_ZN_6
 62
 43
 10
        5.48760
 20
       44.16500
 30
        2.74400
 11
        5.48760
 21
       44.16500
 31
        0.00000
 12
        4.57320
 22
       44.16500
 32
        0.00000
 13
        4.57320
 23
       44.16500
 33
        2.74400
999
DATACENTER_BOT_ZN_6:DATACENTER_BOT_ZN_6_WALL_SOUTH
  0
3DFACE
  8
DATACENTER_BOT_ZN_6
 62
 43
 10
        4.57320
 20
        4.57320
 30
        2.74400
 11
        4.57320
 21
        4.57320
 31
        0.00000
 12
        5.48760
 22
        4.57320
 32
        0.00000
 13
        5.48760
 23
        4.57320
 33
        2.74400
999
DATACENTER_BOT_ZN_6:DATACENTER_BOT_ZN_6_WALL_EAST-PPAUTOCREATEOTHER
  0
3DFACE
  8
DATACENTER_BOT_ZN_6
 62
 43
 10
        5.48760
 20
        4.57320
 30
        2.74400
 11
        5.48760
 21
        4.57320
 31
        0.00000
 12
        5.48760
 22
       44.16500
 32
        0.00000
 13
        5.48760
 23
       44.16500
 33
        2.74400
999
DATACENTER_BOT_ZN_6:DATACENTER_BOT_ZN_6_WALL_WEST
  0
3DFACE
  8
DATACENTER_BOT_ZN_6
 62
 43
 10
        4.57320
 20
       44.16500
 30
        2.74400
 11
        4.57320
 21
       44.16500
 31
        0.00000
 12
        4.57320
 22
        4.57320
 32
        0.00000
 13
        4.57320
 23
        4.57320
 33
        2.74400
999
DATACENTER_BOT_ZN_6:DATACENTER_BOT_ZN_6_FLOOR
  0
3DFACE
  8
DATACENTER_BOT_ZN_6
 62
  8
 10
        5.48760
 20
       44.16500
 30
        0.00000
 11
        5.48760
 21
        4.57320
 31
        0.00000
 12
        4.57320
 22
        4.57320
 32
        0.00000
 13
        4.57320
 23
       44.16500
 33
        0.00000
999
DATACENTER_BOT_ZN_6:DATACENTER_BOT_ZN_6_CEILING
  0
3DFACE
  8
DATACENTER_BOT_ZN_6
 62
 15
 10
        4.57320
 20
       44.16500
 30
        2.74400
 11
        4.57320
 21
        4.57320
 31
        2.74400
 12
        5.48760
 22
        4.57320
 32
        2.74400
 13
        5.48760
 23
       44.16500
 33
        2.74400
999
DATACENTER_MID_ZN_6:DATACENTER_MID_ZN_6_WALL_WEST
  0
3DFACE
  8
DATACENTER_MID_ZN_6
 62
 43
 10
        4.57320
 20
       44.16500
 30
       19.51230
 11
        4.57320
 21
       44.16500
 31
       16.76830
 12
        4.57320
 22
        4.57320
 32
       16.76830
 13
        4.57320
 23
        4.57320
 33
       19.51230
999
DATACENTER_MID_ZN_6:DATACENTER_MID_ZN_6_WALL_SOUTH
  0
3DFACE
  8
DATACENTER_MID_ZN_6
 62
 43
 10
        4.57320
 20
        4.57320
 30
       19.51230
 11
        4.57320
 21
        4.57320
 31
       16.76830
 12
        5.48760
 22
        4.57320
 32
       16.76830
 13
        5.48760
 23
        4.57320
 33
       19.51230
999
DATACENTER_MID_ZN_6:DATACENTER_MID_ZN_6_WALL_EAST
  0
3DFACE
  8
DATACENTER_MID_ZN_6
 62
 43
 10
        5.48760
 20
        4.57320
 30
       19.51230
 11
        5.48760
 21
        4.57320
 31
       16.76830
 12
        5.48760
 22
       44.16500
 32
       16.76830
 13
        5.48760
 23
       44.16500
 33
       19.51230
999
DATACENTER_MID_ZN_6:DATACENTER_MID_ZN_6_WALL_NORTH
  0
3DFACE
  8
DATACENTER_MID_ZN_6
 62
 43
 10
        5.48760
 20
       44.16500
 30
       19.51230
 11
        5.48760
 21
       44.16500
 31
       16.76830
 12
        4.57320
 22
       44.16500
 32
       16.76830
 13
        4.57320
 23
       44.16500
 33
       19.51230
999
DATACENTER_MID_ZN_6:DATACENTER_MID_ZN_6_FLOOR
  0
3DFACE
  8
DATACENTER_MID_ZN_6
 62
  8
 10
        5.48760
 20
       44.16500
 30
       16.76830
 11
        5.48760
 21
        4.57320
 31
       16.76830
 12
        4.57320
 22
        4.57320
 32
       16.76830
 13
        4.57320
 23
       44.16500
 33
       16.76830
999
DATACENTER_MID_ZN_6:DATACENTER_MID_ZN_6_CEILING
  0
3DFACE
  8
DATACENTER_MID_ZN_6
 62
 15
 10
        4.57320
 20
       44.16500
 30
       19.51230
 11
        4.57320
 21
        4.57320
 31
       19.51230
 12
        5.48760
 22
        4.57320
 32
       19.51230
 13
        5.48760
 23
       44.16500
 33
       19.51230
999
DATACENTER_TOP_ZN_6:DATACENTER_TOP_ZN_6_WALL_EAST
  0
3DFACE
  8
DATACENTER_TOP_ZN_6
 62
 43
 10
        5.48760
 20
        4.57320
 30
       36.28060
 11
        5.48760
 21
        4.57320
 31
       33.53660
 12
        5.48760
 22
       44.16500
 32
       33.53660
 13
        5.48760
 23
       44.16500
 33
       36.28060
999
DATACENTER_TOP_ZN_6:DATACENTER_TOP_ZN_6_WALL_WEST
  0
3DFACE
  8
DATACENTER_TOP_ZN_6
 62
 43
 10
        4.57320
 20
       44.16500
 30
       36.28060
 11
        4.57320
 21
       44.16500
 31
       33.53660
 12
        4.57320
 22
        4.57320
 32
       33.53660
 13
        4.57320
 23
        4.57320
 33
       36.28060
999
DATACENTER_TOP_ZN_6:DATACENTER_TOP_ZN_6_WALL_SOUTH
  0
3DFACE
  8
DATACENTER_TOP_ZN_6
 62
 43
 10
        4.57320
 20
        4.57320
 30
       36.28060
 11
        4.57320
 21
        4.57320
 31
       33.53660
 12
        5.48760
 22
        4.57320
 32
       33.53660
 13
        5.48760
 23
        4.57320
 33
       36.28060
999
DATACENTER_TOP_ZN_6:DATACENTER_TOP_ZN_6_WALL_NORTH
  0
3DFACE
  8
DATACENTER_TOP_ZN_6
 62
 43
 10
        5.48760
 20
       44.16500
 30
       36.28060
 11
        5.48760
 21
       44.16500
 31
       33.53660
 12
        4.57320
 22
       44.16500
 32
       33.53660
 13
        4.57320
 23
       44.16500
 33
       36.28060
999
DATACENTER_TOP_ZN_6:DATACENTER_TOP_ZN_6_FLOOR
  0
3DFACE
  8
DATACENTER_TOP_ZN_6
 62
  8
 10
        5.48760
 20
       44.16500
 30
       33.53660
 11
        5.48760
 21
        4.57320
 31
       33.53660
 12
        4.57320
 22
        4.57320
 32
       33.53660
 13
        4.57320
 23
       44.16500
 33
       33.53660
999
DATACENTER_TOP_ZN_6:DATACENTER_TOP_ZN_6_CEILING
  0
3DFACE
  8
DATACENTER_TOP_ZN_6
 62
 15
 10
        4.57320
 20
       44.16500
 30
       36.28060
 11
        4.57320
 21
        4.57320
 31
       36.28060
 12
        5.48760
 22
        4.57320
 32
       36.28060
 13
        5.48760
 23
       44.16500
 33
       36.28060
999
DATACENTER_BASEMENT_ZN_6:DATACENTER_BASEMENT_ZN_6_WALL_NORTH
  0
3DFACE
  8
DATACENTER_BASEMENT_ZN_6
 62
 43
 10
       16.07820
 20
       48.73810
 30
        0.00000
 11
       16.07940
 21
       48.73810
 31
       -2.43900
 12
        0.00000
 22
       48.73810
 32
       -2.43900
 13
        0.00000
 23
       48.73810
 33
        0.00000
999
DATACENTER_BASEMENT_ZN_6:DATACENTER_BASEMENT_ZN_6_WALL_SOUTH
  0
3DFACE
  8
DATACENTER_BASEMENT_ZN_6
 62
 43
 10
        0.00000
 20
        0.00000
 30
        0.00000
 11
        0.00000
 21
        0.00000
 31
       -2.43900
 12
       16.07940
 22
        0.00000
 32
       -2.43900
 13
       16.07940
 23
        0.00000
 33
        0.00000
999
DATACENTER_BASEMENT_ZN_6:DATACENTER_BASEMENT_ZN_6_WALL_WEST
  0
3DFACE
  8
DATACENTER_BASEMENT_ZN_6
 62
 43
 10
        0.00000
 20
       48.73810
 30
        0.00000
 11
        0.00000
 21
       48.73810
 31
       -2.43900
 12
        0.00000
 22
        0.00000
 32
       -2.43900
 13
        0.00000
 23
        0.00000
 33
        0.00000
999
DATACENTER_BASEMENT_ZN_6:DATACENTER_BASEMENT_ZN_6_WALL_EAST
  0
3DFACE
  8
DATACENTER_BASEMENT_ZN_6
 62
 43
 10
       16.07940
 20
        0.00000
 30
        0.00000
 11
       16.07940
 21
        0.00000
 31
       -2.43900
 12
       16.07940
 22
       48.73810
 32
       -2.43900
 13
       16.07940
 23
       48.73810
 33
        0.00000
999
DATACENTER_BASEMENT_ZN_6:DATACENTER_BASEMENT_ZN_6_FLOOR
  0
3DFACE
  8
DATACENTER_BASEMENT_ZN_6
 62
  8
 10
       16.07940
 20
       48.73810
 30
       -2.43900
 11
       16.07940
 21
        0.00000
 31
       -2.43900
 12
        0.00000
 22
        0.00000
 32
       -2.43900
 13
        0.00000
 23
       48.73810
 33
       -2.43900
999
DATACENTER_BASEMENT_ZN_6:DATACENTER_BOT_ZN_6_FLOOR-PPAUTOCREATEOTHER
  0
3DFACE
  8
DATACENTER_BASEMENT_ZN_6
 62
 15
 10
        4.57320
 20
       44.16500
 30
        0.00000
 11
        4.57320
 21
        4.57320
 31
        0.00000
 12
        5.48760
 22
        4.57320
 32
        0.00000
 13
        5.48760
 23
       44.16500
 33
        0.00000
999
DATACENTER_BASEMENT_ZN_6:DATACENTER_BASEMENT_ZN_6_CEILING-CORE_BOT_ZN_5
  0
3DFACE
  8
DATACENTER_BASEMENT_ZN_6
 62
 15
 10
        5.48760
 20
       44.16500
 30
        0.00000
 11
        5.48760
 21
        4.57320
 31
        0.00000
 12
       16.07940
 22
        4.57320
 32
        0.00000
 13
       16.07940
 23
       44.16500
 33
        0.00000
999
DATACENTER_BASEMENT_ZN_6:PERIMETER_BOT_ZN_4_FLOOR-PPAUTOCREATEOTHER
  0
3DFACE
  8
DATACENTER_BASEMENT_ZN_6
 62
 15
 10
        0.00000
 20
       48.73810
 30
        0.00000
 11
        0.00000
 21
        0.00000
 31
        0.00000
 12
        4.57320
 22
        4.57320
 32
        0.00000
 13
        4.57320
 23
       44.16500
 33
        0.00000
999
DATACENTER_BASEMENT_ZN_6:DATACENTER_BASEMENT_ZN_6_CEILING-PERIMETER_BOT_ZN_1
  0
3DFACE
  8
DATACENTER_BASEMENT_ZN_6
 62
 15
 10
        4.57320
 20
        4.57320
 30
        0.00000
 11
        0.00000
 21
        0.00000
 31
        0.00000
 12
       16.07940
 22
        0.00000
 32
        0.00000
 13
       16.07940
 23
        4.57320
 33
        0.00000
999
DATACENTER_BASEMENT_ZN_6:DATACENTER_BASEMENT_ZN_6_CEILING-PERIMETER_BOT_ZN_3
  0
3DFACE
  8
DATACENTER_BASEMENT_ZN_6
 62
 15
 10
        0.00000
 20
       48.73810
 30
        0.00000
 11
        4.57320
 21
       44.16500
 31
        0.00000
 12
       16.07820
 22
       44.16500
 32
        0.00000
 13
       16.07820
 23
       48.73810
 33
        0.00000
999
PERIMETER_BOT_ZN_3:DayRefPt:1
  0
CIRCLE
  8
PERIMETER_BOT_ZN_3
 62
 10
 10
       36.57600
 20
       47.06170
 30
        0.76200
 40
        0.20000
999
PERIMETER_BOT_ZN_3:DayRefPt:2
  0
CIRCLE
  8
PERIMETER_BOT_ZN_3
 62
  5
 10
       36.57600
 20
       45.38470
 30
        0.76200
 40
        0.20000
999
PERIMETER_BOT_ZN_2:DayRefPt:1
  0
CIRCLE
  8
PERIMETER_BOT_ZN_2
 62
 10
 10
       71.43080
 20
       24.38400
 30
        0.76200
 40
        0.20000
999
PERIMETER_BOT_ZN_2:DayRefPt:2
  0
CIRCLE
  8
PERIMETER_BOT_ZN_2
 62
  5
 10
       69.75440
 20
       24.38400
 30
        0.76200
 40
        0.20000
999
PERIMETER_BOT_ZN_1:DayRefPt:1
  0
CIRCLE
  8
PERIMETER_BOT_ZN_1
 62
 10
 10
       36.57600
 20
        1.67640
 30
        0.76200
 40
        0.20000
999
PERIMETER_BOT_ZN_1:DayRefPt:2
  0
CIRCLE
  8
PERIMETER_BOT_ZN_1
 62
  5
 10
       36.57600
 20
        3.35280
 30
        0.76200
 40
        0.20000
999
PERIMETER_BOT_ZN_4:DayRefPt:1
  0
CIRCLE
  8
PERIMETER_BOT_ZN_4
 62
 10
 10
        1.67640
 20
       24.38400
 30
        0.76200
 40
        0.20000
999
PERIMETER_BOT_ZN_4:DayRefPt:2
  0
CIRCLE
  8
PERIMETER_BOT_ZN_4
 62
  5
 10
        3.35280
 20
       24.38400
 30
        0.76200
 40
        0.20000
999
PERIMETER_MID_ZN_3:DayRefPt:1
  0
CIRCLE
  8
PERIMETER_MID_ZN_3
 62
 10
 10
       36.57600
 20
       47.06170
 30
       17.52600
 40
        0.20000
999
PERIMETER_MID_ZN_3:DayRefPt:2
  0
CIRCLE
  8
PERIMETER_MID_ZN_3
 62
  5
 10
       36.57600
 20
       45.38470
 30
       17.52600
 40
        0.20000
999
PERIMETER_MID_ZN_2:DayRefPt:1
  0
CIRCLE
  8
PERIMETER_MID_ZN_2
 62
 10
 10
       71.43080
 20
       24.38400
 30
       17.52600
 40
        0.20000
999
PERIMETER_MID_ZN_2:DayRefPt:2
  0
CIRCLE
  8
PERIMETER_MID_ZN_2
 62
  5
 10
       69.75440
 20
       24.38400
 30
       17.52600
 40
        0.20000
999
PERIMETER_MID_ZN_1:DayRefPt:1
  0
CIRCLE
  8
PERIMETER_MID_ZN_1
 62
 10
 10
       36.57600
 20
        1.67640
 30
       17.52600
 40
        0.20000
999
PERIMETER_MID_ZN_1:DayRefPt:2
  0
CIRCLE
  8
PERIMETER_MID_ZN_1
 62
  5
 10
       36.57600
 20
        3.35280
 30
       17.52600
 40
        0.20000
999
PERIMETER_MID_ZN_4:DayRefPt:1
  0
CIRCLE
  8
PERIMETER_MID_ZN_4
 62
 10
 10
        1.67640
 20
       24.38400
 30
       17.52600
 40
        0.20000
999
PERIMETER_MID_ZN_4:DayRefPt:2
  0
CIRCLE
  8
PERIMETER_MID_ZN_4
 62
  5
 10
        3.35280
 20
       24.38400
 30
       17.52600
 40
        0.20000
999
PERIMETER_TOP_ZN_3:DayRefPt:1
  0
CIRCLE
  8
PERIMETER_TOP_ZN_3
 62
 10
 10
       36.57600
 20
       47.06170
 30
       34.29000
 40
        0.20000
999
PERIMETER_TOP_ZN_3:DayRefPt:2
  0
CIRCLE
  8
PERIMETER_TOP_ZN_3
 62
  5
 10
       36.57600
 20
       45.38470
 30
       34.29000
 40
        0.20000
999
PERIMETER_TOP_ZN_2:DayRefPt:1
  0
CIRCLE
  8
PERIMETER_TOP_ZN_2
 62
 10
 10
       71.43080
 20
       24.38400
 30
       34.29000
 40
        0.20000
999
PERIMETER_TOP_ZN_2:DayRefPt:2
  0
CIRCLE
  8
PERIMETER_TOP_ZN_2
 62
  5
 10
       69.75440
 20
       24.38400
 30
       34.29000
 40
        0.20000
999
PERIMETER_TOP_ZN_1:DayRefPt:1
  0
CIRCLE
  8
PERIMETER_TOP_ZN_1
 62
 10
 10
       36.57600
 20
        1.67640
 30
       34.29000
 40
        0.20000
999
PERIMETER_TOP_ZN_1:DayRefPt:2
  0
CIRCLE
  8
PERIMETER_TOP_ZN_1
 62
  5
 10
       36.57600
 20
        3.35280
 30
       34.29000
 40
        0.20000
999
PERIMETER_TOP_ZN_4:DayRefPt:1
  0
CIRCLE
  8
PERIMETER_TOP_ZN_4
 62
 10
 10
        1.67640
 20
       24.38400
 30
       34.29000
 40
        0.20000
999
PERIMETER_TOP_ZN_4:DayRefPt:2
  0
CIRCLE
  8
PERIMETER_TOP_ZN_4
 62
  5
 10
        3.35280
 20
       24.38400
 30
       34.29000
 40
        0.20000
  0
ENDSEC
  0
EOF
